3220
     RDKit          3D

 30 32  0  0  0  0  0  0  0  0999 V2000
   -4.9881   -1.5513    0.0000 C   0  0  0  0  0  0  0  0  0  0  0  0
   -2.4886   -1.5188    0.0002 C   0  0  0  0  0  0  0  0  0  0  0  0
   -3.6851    0.5803   -0.0009 C   0  0  0  0  0  0  0  0  0  0  0  0
    2.4845   -1.5439   -0.0004 C   0  0  0  0  0  0  0  0  0  0  0  0
    3.7020    0.5433   -0.0003 C   0  0  0  0  0  0  0  0  0  0  0  0
   -3.6921   -0.8130   -0.0001 C   0  0  0  0  0  0  0  0  0  0  0  0
    3.6949   -0.8502   -0.0008 C   0  0  0  0  0  0  0  0  0  0  0  0
   -1.2715   -0.8267    0.0003 C   0  0  0  0  0  0  0  0  0  0  0  0
    1.2745   -0.8395    0.0003 C   0  0  0  0  0  0  0  0  0  0  0  0
   -2.4746    1.2740   -0.0006 C   0  0  0  0  0  0  0  0  0  0  0  0
    2.4986    1.2490    0.0005 C   0  0  0  0  0  0  0  0  0  0  0  0
   -1.2646    0.5697    0.0001 C   0  0  0  0  0  0  0  0  0  0  0  0
    1.2816    0.5569    0.0005 C   0  0  0  0  0  0  0  0  0  0  0  0
   -0.0023   -1.5823    0.0007 C   0  0  0  0  0  0  0  0  0  0  0  0
    0.0122    1.3126   -0.0003 C   0  0  0  0  0  0  0  0  0  0  0  0
    4.8713   -1.5356   -0.0011 O   0  0  0  0  0  0  0  0  0  0  0  0
   -2.5416    2.6359   -0.0003 O   0  0  0  0  0  0  0  0  0  0  0  0
    2.5792    2.6101    0.0012 O   0  0  0  0  0  0  0  0  0  0  0  0
   -0.0087   -2.8071    0.0010 O   0  0  0  0  0  0  0  0  0  0  0  0
    0.0183    2.5369    0.0002 O   0  0  0  0  0  0  0  0  0  0  0  0
   -4.9047   -2.4936    0.5522 H   0  0  0  0  0  0  0  0  0  0  0  0
   -5.2950   -1.7715   -1.0273 H   0  0  0  0  0  0  0  0  0  0  0  0
   -5.7781   -0.9665    0.4835 H   0  0  0  0  0  0  0  0  0  0  0  0
   -2.5081   -2.6060   -0.0014 H   0  0  0  0  0  0  0  0  0  0  0  0
   -4.6224    1.1321   -0.0033 H   0  0  0  0  0  0  0  0  0  0  0  0
    2.4921   -2.6312   -0.0005 H   0  0  0  0  0  0  0  0  0  0  0  0
    4.6533    1.0702   -0.0004 H   0  0  0  0  0  0  0  0  0  0  0  0
    4.6814   -2.4895   -0.0013 H   0  0  0  0  0  0  0  0  0  0  0  0
   -1.6543    3.0245    0.0018 H   0  0  0  0  0  0  0  0  0  0  0  0
    3.5126    2.8827    0.0011 H   0  0  0  0  0  0  0  0  0  0  0  0
  1 21  1  0
  1 22  1  0
  1 23  1  0
  2  6  2  0
  2 24  1  0
  3 25  1  0
  4  7  1  0
  4 26  1  0
  5 27  1  0
  6  1  1  0
  6  3  1  0
  7  5  2  0
  8  2  1  0
  8 12  2  0
  8 14  1  0
  9  4  2  0
  9 14  1  0
 10  3  2  0
 11  5  1  0
 12 10  1  0
 12 15  1  0
 13  9  1  0
 13 11  2  0
 13 15  1  0
 16  7  1  0
 16 28  1  0
 17 10  1  0
 17 29  1  0
 18 11  1  0
 18 30  1  0
 19 14  2  0
 20 15  2  0
M  END
