338659
     RDKit          3D

 39 41  0  0  1  0  0  0  0  0999 V2000
   -1.7706   -3.1579   -0.3063 C   0  0  0  0  0  0  0  0  0  0  0  0
    3.2449    1.8903   -0.8913 C   0  0  0  0  0  0  0  0  0  0  0  0
   -1.3741    1.3242   -1.8077 C   0  0  0  0  0  0  0  0  0  0  0  0
   -2.9263    0.8223    1.4934 C   0  0  0  0  0  0  0  0  0  0  0  0
   -2.3335   -0.5702    1.3120 C   0  0  0  0  0  0  0  0  0  0  0  0
    0.3429   -1.9637    0.2686 C   0  0  0  0  0  0  0  0  0  0  0  0
    0.2358    0.9785    0.1379 C   0  0  0  0  0  0  0  0  0  0  0  0
   -0.9791   -1.8485   -0.5055 C   0  0  0  0  0  0  0  0  0  0  0  0
    2.6686    0.7865   -0.4091 C   0  0  0  0  0  0  0  0  0  0  0  0
    1.3019    0.2591   -0.6972 C   0  0  0  0  0  0  0  0  0  0  0  0
    1.5117   -1.2071   -0.3523 C   0  0  0  0  0  0  0  0  0  0  0  0
   -2.0941    1.6516    0.5529 C   0  0  0  0  0  0  0  0  0  0  0  0
    3.3781   -0.1372    0.4909 C   0  0  0  0  0  0  0  0  0  0  0  0
   -1.2143    0.8004   -0.3709 C   0  0  0  0  0  0  0  0  0  0  0  0
   -1.8519   -0.6092   -0.1515 C   0  0  0  0  0  0  0  0  0  0  0  0
   -2.1315    2.8771    0.5367 O   0  0  0  0  0  0  0  0  0  0  0  0
    4.4365    0.0555    1.0604 O   0  0  0  0  0  0  0  0  0  0  0  0
   -3.0550   -0.6952   -0.9463 O   0  0  0  0  0  0  0  0  0  0  0  0
    2.6099   -1.2566    0.5852 O   0  0  0  0  0  0  0  0  0  0  0  0
   -1.1915   -4.0149   -0.6685 H   0  0  0  0  0  0  0  0  0  0  0  0
   -1.9977   -3.3335    0.7503 H   0  0  0  0  0  0  0  0  0  0  0  0
   -2.7120   -3.1520   -0.8643 H   0  0  0  0  0  0  0  0  0  0  0  0
    2.7054    2.5439   -1.5688 H   0  0  0  0  0  0  0  0  0  0  0  0
    4.2591    2.1696   -0.6269 H   0  0  0  0  0  0  0  0  0  0  0  0
   -2.4190    1.5496   -2.0498 H   0  0  0  0  0  0  0  0  0  0  0  0
   -0.8167    2.2571   -1.9524 H   0  0  0  0  0  0  0  0  0  0  0  0
   -1.0129    0.5973   -2.5421 H   0  0  0  0  0  0  0  0  0  0  0  0
   -2.8158    1.1720    2.5226 H   0  0  0  0  0  0  0  0  0  0  0  0
   -3.9757    0.8664    1.1897 H   0  0  0  0  0  0  0  0  0  0  0  0
   -1.5130   -0.7037    2.0231 H   0  0  0  0  0  0  0  0  0  0  0  0
   -3.0965   -1.3258    1.5275 H   0  0  0  0  0  0  0  0  0  0  0  0
    0.2240   -1.6848    1.3207 H   0  0  0  0  0  0  0  0  0  0  0  0
    0.6538   -3.0172    0.3178 H   0  0  0  0  0  0  0  0  0  0  0  0
    0.3139    0.6909    1.1951 H   0  0  0  0  0  0  0  0  0  0  0  0
    0.4577    2.0564    0.1325 H   0  0  0  0  0  0  0  0  0  0  0  0
   -0.7557   -1.8027   -1.5804 H   0  0  0  0  0  0  0  0  0  0  0  0
    1.0864    0.3577   -1.7659 H   0  0  0  0  0  0  0  0  0  0  0  0
    1.8427   -1.7520   -1.2475 H   0  0  0  0  0  0  0  0  0  0  0  0
   -3.6127    0.0838   -0.7925 H   0  0  0  0  0  0  0  0  0  0  0  0
  1 20  1  0
  1 21  1  0
  1 22  1  0
  2 23  1  0
  2 24  1  0
  3 25  1  0
  3 26  1  0
  3 27  1  0
  4 28  1  0
  4 29  1  0
  5  4  1  0
  5 30  1  0
  5 31  1  0
  6 11  1  0
  6 32  1  0
  6 33  1  0
  7 10  1  0
  7 34  1  0
  7 35  1  0
  8  1  1  0
  8  6  1  0
  8 36  1  0
  9  2  2  0
  9 13  1  0
 10  9  1  0
 10 11  1  0
 10 37  1  0
 11 38  1  0
 12  4  1  0
 14  3  1  0
 14  7  1  0
 14 12  1  0
 14 15  1  0
 15  5  1  0
 15  8  1  0
 16 12  2  0
 17 13  2  0
 18 15  1  0
 18 39  1  0
 19 11  1  0
 19 13  1  0
M  END
