36284
     RDKit          3D

 24 24  0  0  1  0  0  0  0  0999 V2000
   -4.6854   -0.3771   -0.3773 C   0  0  0  0  0  0  0  0  0  0  0  0
   -2.1867   -0.5074   -0.0708 C   0  0  0  0  0  0  0  0  0  0  0  0
   -0.8406    0.2272   -0.0850 C   0  0  0  0  0  0  0  0  0  0  0  0
    2.0591    1.2176   -0.1906 C   0  0  0  0  0  0  0  0  0  0  0  0
    3.4343    1.2375   -0.1726 C   0  0  0  0  0  0  0  0  0  0  0  0
    2.8552   -0.8417    0.1296 C   0  0  0  0  0  0  0  0  0  0  0  0
   -3.3866    0.4166   -0.3147 C   0  0  0  0  0  0  0  0  0  0  0  0
    1.7217   -0.1162    0.0037 C   0  0  0  0  0  0  0  0  0  0  0  0
    0.3674   -0.6949    0.0704 C   0  0  0  0  0  0  0  0  0  0  0  0
   -3.4757    1.3576    0.7519 O   0  0  0  0  0  0  0  0  0  0  0  0
    0.2100   -1.9053    0.2331 O   0  0  0  0  0  0  0  0  0  0  0  0
    3.9273   -0.0139    0.0222 O   0  0  0  0  0  0  0  0  0  0  0  0
   -4.6721   -1.0966   -1.2015 H   0  0  0  0  0  0  0  0  0  0  0  0
   -4.8631   -0.9184    0.5585 H   0  0  0  0  0  0  0  0  0  0  0  0
   -5.5369    0.2978   -0.5164 H   0  0  0  0  0  0  0  0  0  0  0  0
   -2.2965   -1.0095    0.8994 H   0  0  0  0  0  0  0  0  0  0  0  0
   -2.1737   -1.2935   -0.8363 H   0  0  0  0  0  0  0  0  0  0  0  0
   -0.8113    0.9597    0.7297 H   0  0  0  0  0  0  0  0  0  0  0  0
   -0.7361    0.7613   -1.0367 H   0  0  0  0  0  0  0  0  0  0  0  0
    1.4164    2.0751   -0.3281 H   0  0  0  0  0  0  0  0  0  0  0  0
    4.1723    2.0193   -0.2781 H   0  0  0  0  0  0  0  0  0  0  0  0
    3.0857   -1.8850    0.2896 H   0  0  0  0  0  0  0  0  0  0  0  0
   -3.2527    0.9766   -1.2462 H   0  0  0  0  0  0  0  0  0  0  0  0
   -3.5958    0.8623    1.5801 H   0  0  0  0  0  0  0  0  0  0  0  0
  1 13  1  0
  1 14  1  0
  1 15  1  0
  2  3  1  0
  2  7  1  0
  2 16  1  0
  2 17  1  0
  3  9  1  0
  3 18  1  0
  3 19  1  0
  4  5  2  0
  4 20  1  0
  5 21  1  0
  6 22  1  0
  7  1  1  0
  7 23  1  0
  8  4  1  0
  8  6  2  0
  9  8  1  0
 10  7  1  0
 10 24  1  0
 11  9  2  0
 12  5  1  0
 12  6  1  0
M  END
