444899
     RDKit          3D

 54 53  0  0  0  0  0  0  0  0999 V2000
   -6.2771   -1.7857    0.1244 O   0  0  0  0  0  0  0  0  0  0  0  0
   -5.2028   -0.9521   -1.7173 O   0  0  0  0  0  0  0  0  0  0  0  0
    3.9946    0.2682   -0.7104 C   0  0  0  0  0  0  0  0  0  0  0  0
    4.2983   -0.5797    0.5379 C   0  0  0  0  0  0  0  0  0  0  0  0
    3.6193   -0.5478   -1.9615 C   0  0  0  0  0  0  0  0  0  0  0  0
    5.5320   -1.4755    0.3588 C   0  0  0  0  0  0  0  0  0  0  0  0
    2.5244   -1.5620   -1.7242 C   0  0  0  0  0  0  0  0  0  0  0  0
    5.8817   -2.1948    1.6584 C   0  0  0  0  0  0  0  0  0  0  0  0
   -2.7806   -0.9168    0.0771 C   0  0  0  0  0  0  0  0  0  0  0  0
   -3.0006   -0.1308    1.3805 C   0  0  0  0  0  0  0  0  0  0  0  0
    1.2247   -1.2721   -1.5260 C   0  0  0  0  0  0  0  0  0  0  0  0
    0.6494    0.1177   -1.4530 C   0  0  0  0  0  0  0  0  0  0  0  0
   -3.7887   -2.0587   -0.1348 C   0  0  0  0  0  0  0  0  0  0  0  0
   -4.2557    0.7073    1.3550 C   0  0  0  0  0  0  0  0  0  0  0  0
   -3.1429    2.8303    0.5353 C   0  0  0  0  0  0  0  0  0  0  0  0
    0.5294    0.5639   -0.0182 C   0  0  0  0  0  0  0  0  0  0  0  0
   -4.3140    2.0073    1.0073 C   0  0  0  0  0  0  0  0  0  0  0  0
   -0.3034    2.8737   -0.6135 C   0  0  0  0  0  0  0  0  0  0  0  0
    0.0994    1.7842    0.3486 C   0  0  0  0  0  0  0  0  0  0  0  0
   -2.7876    2.4824   -0.8874 C   0  0  0  0  0  0  0  0  0  0  0  0
   -1.5422    2.5170   -1.3947 C   0  0  0  0  0  0  0  0  0  0  0  0
   -5.1213   -1.5630   -0.6191 C   0  0  0  0  0  0  0  0  0  0  0  0
   -6.2478   -2.2734    1.0116 H   0  0  0  0  0  0  0  0  0  0  0  0
    3.1763    0.9752   -0.4685 H   0  0  0  0  0  0  0  0  0  0  0  0
    4.8829    0.8926   -0.9493 H   0  0  0  0  0  0  0  0  0  0  0  0
    4.4789    0.1169    1.3858 H   0  0  0  0  0  0  0  0  0  0  0  0
    3.4146   -1.1995    0.8032 H   0  0  0  0  0  0  0  0  0  0  0  0
    4.5232   -1.0852   -2.3191 H   0  0  0  0  0  0  0  0  0  0  0  0
    3.3272    0.1386   -2.7841 H   0  0  0  0  0  0  0  0  0  0  0  0
    5.3359   -2.2402   -0.4225 H   0  0  0  0  0  0  0  0  0  0  0  0
    6.4023   -0.8601    0.0430 H   0  0  0  0  0  0  0  0  0  0  0  0
    2.8087   -2.6102   -1.7483 H   0  0  0  0  0  0  0  0  0  0  0  0
    6.1193   -1.4587    2.4557 H   0  0  0  0  0  0  0  0  0  0  0  0
    6.7693   -2.8423    1.4978 H   0  0  0  0  0  0  0  0  0  0  0  0
    5.0324   -2.8311    1.9872 H   0  0  0  0  0  0  0  0  0  0  0  0
   -1.7673   -1.3706    0.1293 H   0  0  0  0  0  0  0  0  0  0  0  0
   -2.7778   -0.2354   -0.7985 H   0  0  0  0  0  0  0  0  0  0  0  0
   -2.1122    0.4989    1.5812 H   0  0  0  0  0  0  0  0  0  0  0  0
   -3.0667   -0.8409    2.2326 H   0  0  0  0  0  0  0  0  0  0  0  0
    0.5392   -2.0997   -1.3656 H   0  0  0  0  0  0  0  0  0  0  0  0
    1.2590    0.8382   -2.0349 H   0  0  0  0  0  0  0  0  0  0  0  0
   -0.3617    0.0874   -1.9083 H   0  0  0  0  0  0  0  0  0  0  0  0
   -3.3836   -2.7541   -0.9011 H   0  0  0  0  0  0  0  0  0  0  0  0
   -3.9073   -2.6393    0.8052 H   0  0  0  0  0  0  0  0  0  0  0  0
   -5.1751    0.2316    1.6826 H   0  0  0  0  0  0  0  0  0  0  0  0
   -2.2945    2.7324    1.2395 H   0  0  0  0  0  0  0  0  0  0  0  0
   -3.4459    3.8985    0.5475 H   0  0  0  0  0  0  0  0  0  0  0  0
    0.8102   -0.1288    0.7716 H   0  0  0  0  0  0  0  0  0  0  0  0
   -5.2794    2.5026    1.0628 H   0  0  0  0  0  0  0  0  0  0  0  0
    0.5346    3.0621   -1.3178 H   0  0  0  0  0  0  0  0  0  0  0  0
   -0.4773    3.8199   -0.0578 H   0  0  0  0  0  0  0  0  0  0  0  0
    0.0672    2.0141    1.4097 H   0  0  0  0  0  0  0  0  0  0  0  0
   -3.6021    2.2518   -1.5695 H   0  0  0  0  0  0  0  0  0  0  0  0
   -1.4189    2.2956   -2.4510 H   0  0  0  0  0  0  0  0  0  0  0  0
  1 22  1  0
  2 22  2  0
  3  4  1  0
  3  5  1  0
  4  6  1  0
  5  7  1  0
  6  8  1  0
  7 11  2  0
  9 10  1  0
  9 13  1  0
 10 14  1  0
 11 12  1  0
 12 16  1  0
 13 22  1  0
 14 17  2  0
 15 17  1  0
 15 20  1  0
 16 19  2  0
 18 19  1  0
 18 21  1  0
 20 21  2  0
  1 23  1  0
  3 24  1  0
  3 25  1  0
  4 26  1  0
  4 27  1  0
  5 28  1  0
  5 29  1  0
  6 30  1  0
  6 31  1  0
  7 32  1  0
  8 33  1  0
  8 34  1  0
  8 35  1  0
  9 36  1  0
  9 37  1  0
 10 38  1  0
 10 39  1  0
 11 40  1  0
 12 41  1  0
 12 42  1  0
 13 43  1  0
 13 44  1  0
 14 45  1  0
 15 46  1  0
 15 47  1  0
 16 48  1  0
 17 49  1  0
 18 50  1  0
 18 51  1  0
 19 52  1  0
 20 53  1  0
 21 54  1  0
M  END
