10208
     RDKit          3D

 29 31  0  0  0  0  0  0  0  0999 V2000
    4.8734    1.1412    0.0025 C   0  0  0  0  0  0  0  0  0  0  0  0
   -3.8357    1.3291    0.0006 C   0  0  0  0  0  0  0  0  0  0  0  0
   -2.5608    1.8957   -0.0001 C   0  0  0  0  0  0  0  0  0  0  0  0
   -3.9848   -0.0564    0.0006 C   0  0  0  0  0  0  0  0  0  0  0  0
    2.3838    1.3637    0.0002 C   0  0  0  0  0  0  0  0  0  0  0  0
    3.3599   -0.8466   -0.0001 C   0  0  0  0  0  0  0  0  0  0  0  0
    3.5090    0.5388    0.0004 C   0  0  0  0  0  0  0  0  0  0  0  0
   -1.4289    1.0716   -0.0005 C   0  0  0  0  0  0  0  0  0  0  0  0
    1.1025    0.7994   -0.0005 C   0  0  0  0  0  0  0  0  0  0  0  0
   -2.8595   -0.8812    0.0000 C   0  0  0  0  0  0  0  0  0  0  0  0
    2.0850   -1.4132   -0.0007 C   0  0  0  0  0  0  0  0  0  0  0  0
   -1.5783   -0.3168   -0.0004 C   0  0  0  0  0  0  0  0  0  0  0  0
    0.9532   -0.5891   -0.0008 C   0  0  0  0  0  0  0  0  0  0  0  0
   -0.0831    1.6805   -0.0007 C   0  0  0  0  0  0  0  0  0  0  0  0
   -0.3928   -1.1979   -0.0004 C   0  0  0  0  0  0  0  0  0  0  0  0
   -3.0789   -2.2270    0.0012 O   0  0  0  0  0  0  0  0  0  0  0  0
    2.0123   -2.7748   -0.0017 O   0  0  0  0  0  0  0  0  0  0  0  0
    0.0477    2.8982   -0.0011 O   0  0  0  0  0  0  0  0  0  0  0  0
   -0.5239   -2.4151    0.0012 O   0  0  0  0  0  0  0  0  0  0  0  0
    5.2101    1.3049    1.0310 H   0  0  0  0  0  0  0  0  0  0  0  0
    4.8828    2.1000   -0.5271 H   0  0  0  0  0  0  0  0  0  0  0  0
    5.5947    0.4902   -0.5032 H   0  0  0  0  0  0  0  0  0  0  0  0
   -4.7134    1.9692    0.0011 H   0  0  0  0  0  0  0  0  0  0  0  0
   -2.4713    2.9787    0.0000 H   0  0  0  0  0  0  0  0  0  0  0  0
   -4.9827   -0.4870    0.0013 H   0  0  0  0  0  0  0  0  0  0  0  0
    2.5138    2.4433    0.0028 H   0  0  0  0  0  0  0  0  0  0  0  0
    4.2424   -1.4825    0.0022 H   0  0  0  0  0  0  0  0  0  0  0  0
   -2.2407   -2.7125   -0.0011 H   0  0  0  0  0  0  0  0  0  0  0  0
    2.9091   -3.1507   -0.0017 H   0  0  0  0  0  0  0  0  0  0  0  0
  1 20  1  0
  1 21  1  0
  1 22  1  0
  2 23  1  0
  3  2  2  0
  3 24  1  0
  4  2  1  0
  4 25  1  0
  5  7  1  0
  5 26  1  0
  6 27  1  0
  7  1  1  0
  7  6  2  0
  8  3  1  0
  8 14  1  0
  9  5  2  0
  9 13  1  0
  9 14  1  0
 10  4  2  0
 11  6  1  0
 12  8  2  0
 12 10  1  0
 12 15  1  0
 13 11  2  0
 13 15  1  0
 16 10  1  0
 16 28  1  0
 17 11  1  0
 17 29  1  0
 18 14  2  0
 19 15  2  0
M  END
