68313
     RDKit          3D

 27 27  0  0  0  0  0  0  0  0999 V2000
    3.8050    1.0779    0.4464 C   0  0  0  0  0  0  0  0  0  0  0  0
    4.2392   -0.7230   -1.0835 C   0  0  0  0  0  0  0  0  0  0  0  0
   -0.9639    1.2023   -0.0345 C   0  0  0  0  0  0  0  0  0  0  0  0
   -1.0728   -1.1226    0.6134 C   0  0  0  0  0  0  0  0  0  0  0  0
   -2.3152    1.1695   -0.3790 C   0  0  0  0  0  0  0  0  0  0  0  0
   -2.4240   -1.1554    0.2687 C   0  0  0  0  0  0  0  0  0  0  0  0
    1.1015    0.0913    0.8310 C   0  0  0  0  0  0  0  0  0  0  0  0
    1.9930   -0.2813   -0.3542 C   0  0  0  0  0  0  0  0  0  0  0  0
   -0.3590    0.0559    0.4575 C   0  0  0  0  0  0  0  0  0  0  0  0
   -3.0452   -0.0094   -0.2275 C   0  0  0  0  0  0  0  0  0  0  0  0
    3.4049   -0.2646    0.0266 N   0  0  0  0  0  0  0  0  0  0  0  0
   -4.3634   -0.0407   -0.5649 O   0  0  0  0  0  0  0  0  0  0  0  0
    4.8913    1.1231    0.5929 H   0  0  0  0  0  0  0  0  0  0  0  0
    3.5382    1.8451   -0.2897 H   0  0  0  0  0  0  0  0  0  0  0  0
    3.3795    1.3469    1.4176 H   0  0  0  0  0  0  0  0  0  0  0  0
    4.1531   -0.0731   -1.9620 H   0  0  0  0  0  0  0  0  0  0  0  0
    3.9630   -1.7414   -1.3791 H   0  0  0  0  0  0  0  0  0  0  0  0
    5.2927   -0.7610   -0.7844 H   0  0  0  0  0  0  0  0  0  0  0  0
   -0.4036    2.1246   -0.1586 H   0  0  0  0  0  0  0  0  0  0  0  0
   -0.5974   -2.0207    0.9972 H   0  0  0  0  0  0  0  0  0  0  0  0
   -2.7871    2.0690   -0.7651 H   0  0  0  0  0  0  0  0  0  0  0  0
   -2.9873   -2.0768    0.3884 H   0  0  0  0  0  0  0  0  0  0  0  0
    1.2813   -0.5899    1.6734 H   0  0  0  0  0  0  0  0  0  0  0  0
    1.3140    1.0978    1.2087 H   0  0  0  0  0  0  0  0  0  0  0  0
    1.7207   -1.2905   -0.6914 H   0  0  0  0  0  0  0  0  0  0  0  0
    1.8037    0.3936   -1.2003 H   0  0  0  0  0  0  0  0  0  0  0  0
   -4.6267    0.8377   -0.8894 H   0  0  0  0  0  0  0  0  0  0  0  0
  1 13  1  0
  1 14  1  0
  1 15  1  0
  2 16  1  0
  2 17  1  0
  2 18  1  0
  3  5  2  0
  3 19  1  0
  4  6  1  0
  4 20  1  0
  5 10  1  0
  5 21  1  0
  6 10  2  0
  6 22  1  0
  7  8  1  0
  7  9  1  0
  7 23  1  0
  7 24  1  0
  8 25  1  0
  8 26  1  0
  9  3  1  0
  9  4  2  0
 11  1  1  0
 11  2  1  0
 11  8  1  0
 12 10  1  0
 12 27  1  0
M  END
