112084
     RDKit          3D

 42 43  0  0  1  0  0  0  0  0999 V2000
   -0.1012   -4.4225    0.7211 C   0  0  0  0  0  0  0  0  0  0  0  0
    4.1348    1.4264    0.9574 C   0  0  0  0  0  0  0  0  0  0  0  0
    2.9963    1.8585    1.6375 C   0  0  0  0  0  0  0  0  0  0  0  0
    4.0103    0.5766   -0.1416 C   0  0  0  0  0  0  0  0  0  0  0  0
    1.7331    1.4405    1.2185 C   0  0  0  0  0  0  0  0  0  0  0  0
   -2.5986    3.1775    0.1964 C   0  0  0  0  0  0  0  0  0  0  0  0
   -0.7590   -3.1629    1.2173 C   0  0  0  0  0  0  0  0  0  0  0  0
    2.7471    0.1588   -0.5606 C   0  0  0  0  0  0  0  0  0  0  0  0
    1.6130    0.5921    0.1210 C   0  0  0  0  0  0  0  0  0  0  0  0
   -2.0022    1.8233   -0.1780 C   0  0  0  0  0  0  0  0  0  0  0  0
   -1.6503   -0.9851    0.4041 C   0  0  0  0  0  0  0  0  0  0  0  0
   -3.0785    0.8205   -0.6103 C   0  0  0  0  0  0  0  0  0  0  0  0
   -2.4869   -0.5782   -0.8117 C   0  0  0  0  0  0  0  0  0  0  0  0
   -0.6268    0.1005    0.7511 C   0  0  0  0  0  0  0  0  0  0  0  0
   -1.0065   -2.2617    0.1950 N   0  0  0  0  0  0  0  0  0  0  0  0
    2.6391   -0.7073   -1.6831 N   0  0  0  0  0  0  0  0  0  0  0  0
   -1.5467    4.0383    0.5922 O   0  0  0  0  0  0  0  0  0  0  0  0
   -1.0441   -3.0038    2.4013 O   0  0  0  0  0  0  0  0  0  0  0  0
   -3.6710    1.2297   -1.8405 O   0  0  0  0  0  0  0  0  0  0  0  0
   -3.5581   -1.5118   -0.9637 O   0  0  0  0  0  0  0  0  0  0  0  0
    3.6855   -1.0738   -2.2687 O   0  0  0  0  0  0  0  0  0  0  0  0
    1.5007   -1.0794   -2.0543 O   0  0  0  0  0  0  0  0  0  0  0  0
    0.3629    0.1976   -0.2713 O   0  0  0  0  0  0  0  0  0  0  0  0
   -1.2930    1.3463    0.9706 O   0  0  0  0  0  0  0  0  0  0  0  0
    0.1989   -5.0418    1.5709 H   0  0  0  0  0  0  0  0  0  0  0  0
   -0.8049   -4.9827    0.0992 H   0  0  0  0  0  0  0  0  0  0  0  0
    0.7885   -4.1759    0.1345 H   0  0  0  0  0  0  0  0  0  0  0  0
    5.1181    1.7533    1.2832 H   0  0  0  0  0  0  0  0  0  0  0  0
    3.0939    2.5249    2.4897 H   0  0  0  0  0  0  0  0  0  0  0  0
    4.9209    0.2623   -0.6452 H   0  0  0  0  0  0  0  0  0  0  0  0
    0.8889    1.8315    1.7736 H   0  0  0  0  0  0  0  0  0  0  0  0
   -3.2937    3.0901    1.0380 H   0  0  0  0  0  0  0  0  0  0  0  0
   -3.1228    3.6342   -0.6480 H   0  0  0  0  0  0  0  0  0  0  0  0
   -1.2830    1.9910   -0.9906 H   0  0  0  0  0  0  0  0  0  0  0  0
   -2.3312   -1.0974    1.2594 H   0  0  0  0  0  0  0  0  0  0  0  0
   -3.8760    0.7795    0.1425 H   0  0  0  0  0  0  0  0  0  0  0  0
   -1.8983   -0.6189   -1.7360 H   0  0  0  0  0  0  0  0  0  0  0  0
   -0.1669   -0.2027    1.7022 H   0  0  0  0  0  0  0  0  0  0  0  0
   -0.6742   -2.4788   -0.7404 H   0  0  0  0  0  0  0  0  0  0  0  0
   -1.0871    3.6178    1.3390 H   0  0  0  0  0  0  0  0  0  0  0  0
   -4.3397    0.5646   -2.0778 H   0  0  0  0  0  0  0  0  0  0  0  0
   -4.0957   -1.4903   -0.1537 H   0  0  0  0  0  0  0  0  0  0  0  0
  1 25  1  0
  1 26  1  0
  1 27  1  0
  2 28  1  0
  3  2  2  0
  3 29  1  0
  4  2  1  0
  4 30  1  0
  5  3  1  0
  5 31  1  0
  6 32  1  0
  6 33  1  0
  7  1  1  0
  8  4  2  0
  9  5  2  0
  9  8  1  0
 10  6  1  0
 10 34  1  0
 11 13  1  0
 11 14  1  0
 11 35  1  0
 12 10  1  0
 12 36  1  0
 13 12  1  0
 13 37  1  0
 14 38  1  0
 15  7  1  0
 15 11  1  0
 15 39  1  0
 16  8  1  0
 17  6  1  0
 17 40  1  0
 18  7  2  0
 19 12  1  0
 19 41  1  0
 20 13  1  0
 20 42  1  0
 21 16  1  0
 22 16  2  0
 23  9  1  0
 23 14  1  0
 24 10  1  0
 24 14  1  0
M  CHG  2  16   1  21  -1
M  END
