5281525
     RDKit          3D

 42 41  0  0  1  0  0  0  0  0999 V2000
   -4.7308   -0.3255    1.1786 C   0  0  0  0  0  0  0  0  0  0  0  0
    2.3584    2.8446    0.9320 C   0  0  0  0  0  0  0  0  0  0  0  0
    2.4543    1.8589   -1.3957 C   0  0  0  0  0  0  0  0  0  0  0  0
    0.9608   -2.2835   -1.3258 C   0  0  0  0  0  0  0  0  0  0  0  0
   -3.3238   -0.5121   -1.4352 C   0  0  0  0  0  0  0  0  0  0  0  0
   -3.6744    0.4518    0.9092 C   0  0  0  0  0  0  0  0  0  0  0  0
    3.6489   -0.7123   -0.0830 C   0  0  0  0  0  0  0  0  0  0  0  0
   -1.0359   -1.1046    0.6023 C   0  0  0  0  0  0  0  0  0  0  0  0
    3.2153    0.5411    0.6239 C   0  0  0  0  0  0  0  0  0  0  0  0
    2.8246   -1.9168    0.3772 C   0  0  0  0  0  0  0  0  0  0  0  0
    0.4381   -1.2495    0.8648 C   0  0  0  0  0  0  0  0  0  0  0  0
   -1.3505    0.2386   -0.0717 C   0  0  0  0  0  0  0  0  0  0  0  0
    2.7172    1.6632    0.0710 C   0  0  0  0  0  0  0  0  0  0  0  0
    1.3600   -1.7694    0.0313 C   0  0  0  0  0  0  0  0  0  0  0  0
   -2.8528    0.4814   -0.3616 C   0  0  0  0  0  0  0  0  0  0  0  0
   -3.0093    1.7941   -0.9173 O   0  0  0  0  0  0  0  0  0  0  0  0
   -5.2350   -0.2420    2.1358 H   0  0  0  0  0  0  0  0  0  0  0  0
   -5.1187   -1.0514    0.4747 H   0  0  0  0  0  0  0  0  0  0  0  0
    2.9311    3.7255    0.6238 H   0  0  0  0  0  0  0  0  0  0  0  0
    2.5668    2.6672    1.9923 H   0  0  0  0  0  0  0  0  0  0  0  0
    1.2914    3.0720    0.8374 H   0  0  0  0  0  0  0  0  0  0  0  0
    3.1053    2.6453   -1.7912 H   0  0  0  0  0  0  0  0  0  0  0  0
    1.4138    2.1655   -1.5503 H   0  0  0  0  0  0  0  0  0  0  0  0
    2.6100    0.9633   -1.9992 H   0  0  0  0  0  0  0  0  0  0  0  0
   -0.0523   -2.0173   -1.6342 H   0  0  0  0  0  0  0  0  0  0  0  0
    1.0448   -3.3750   -1.3508 H   0  0  0  0  0  0  0  0  0  0  0  0
    1.6300   -1.8744   -2.0908 H   0  0  0  0  0  0  0  0  0  0  0  0
   -2.6919   -0.4421   -2.3288 H   0  0  0  0  0  0  0  0  0  0  0  0
   -3.3149   -1.5510   -1.0922 H   0  0  0  0  0  0  0  0  0  0  0  0
   -4.3398   -0.2707   -1.7714 H   0  0  0  0  0  0  0  0  0  0  0  0
   -3.3685    1.1522    1.6854 H   0  0  0  0  0  0  0  0  0  0  0  0
    3.6143   -0.6262   -1.1718 H   0  0  0  0  0  0  0  0  0  0  0  0
    4.7013   -0.8924    0.1695 H   0  0  0  0  0  0  0  0  0  0  0  0
   -1.4092   -1.9487    0.0156 H   0  0  0  0  0  0  0  0  0  0  0  0
   -1.5487   -1.1714    1.5693 H   0  0  0  0  0  0  0  0  0  0  0  0
    3.3574    0.5218    1.7039 H   0  0  0  0  0  0  0  0  0  0  0  0
    3.2224   -2.8334   -0.0755 H   0  0  0  0  0  0  0  0  0  0  0  0
    2.9363   -2.0489    1.4618 H   0  0  0  0  0  0  0  0  0  0  0  0
    0.7697   -0.8916    1.8381 H   0  0  0  0  0  0  0  0  0  0  0  0
   -0.9731    1.0552    0.5612 H   0  0  0  0  0  0  0  0  0  0  0  0
   -0.7859    0.3345   -1.0095 H   0  0  0  0  0  0  0  0  0  0  0  0
   -2.6242    2.4354   -0.2955 H   0  0  0  0  0  0  0  0  0  0  0  0
  1 17  1  0
  1 18  1  0
  2 19  1  0
  2 20  1  0
  2 21  1  0
  3 22  1  0
  3 23  1  0
  3 24  1  0
  4 25  1  0
  4 26  1  0
  4 27  1  0
  5 28  1  0
  5 29  1  0
  5 30  1  0
  6  1  2  0
  6 31  1  0
  7  9  1  0
  7 32  1  0
  7 33  1  0
  8 11  1  0
  8 34  1  0
  8 35  1  0
  9 13  2  0
  9 36  1  0
 10  7  1  0
 10 37  1  0
 10 38  1  0
 11 14  2  0
 11 39  1  0
 12  8  1  0
 12 40  1  0
 12 41  1  0
 13  2  1  0
 13  3  1  0
 14  4  1  0
 14 10  1  0
 15  5  1  0
 15  6  1  0
 15 12  1  0
 16 15  1  0
 16 42  1  0
M  END
