63062
     RDKit          3D

 58 60  0  0  0  0  0  0  0  0999 V2000
   -0.1235   -3.2129    0.8167 C   0  0  0  0  0  0  0  0  0  0  0  0
    8.8524   -0.8826   -0.1112 C   0  0  0  0  0  0  0  0  0  0  0  0
    7.7689    0.3291    1.6580 C   0  0  0  0  0  0  0  0  0  0  0  0
   -0.6768   -2.6144   -0.4710 C   0  0  0  0  0  0  0  0  0  0  0  0
   -5.6599   -2.2554    0.2042 C   0  0  0  0  0  0  0  0  0  0  0  0
   -5.1238   -2.0260   -1.0629 C   0  0  0  0  0  0  0  0  0  0  0  0
   -4.8388   -2.1966    1.3302 C   0  0  0  0  0  0  0  0  0  0  0  0
   -3.7663   -1.7375   -1.2039 C   0  0  0  0  0  0  0  0  0  0  0  0
   -3.4814   -1.9081    1.1892 C   0  0  0  0  0  0  0  0  0  0  0  0
   -2.2820    1.4550    1.2732 C   0  0  0  0  0  0  0  0  0  0  0  0
   -2.5589    1.6147   -1.1215 C   0  0  0  0  0  0  0  0  0  0  0  0
    0.9286    0.3662   -1.6073 C   0  0  0  0  0  0  0  0  0  0  0  0
    1.2053    0.2059    0.7875 C   0  0  0  0  0  0  0  0  0  0  0  0
   -3.1767    2.5110    1.4472 C   0  0  0  0  0  0  0  0  0  0  0  0
   -3.4535    2.6708   -0.9475 C   0  0  0  0  0  0  0  0  0  0  0  0
    2.2943    0.6127   -1.7485 C   0  0  0  0  0  0  0  0  0  0  0  0
    2.5710    0.4526    0.6462 C   0  0  0  0  0  0  0  0  0  0  0  0
    6.6465    0.0103   -0.4423 C   0  0  0  0  0  0  0  0  0  0  0  0
    5.3079    0.3145    0.2111 C   0  0  0  0  0  0  0  0  0  0  0  0
   -2.9742   -1.6848   -0.0748 C   0  0  0  0  0  0  0  0  0  0  0  0
   -2.0026    1.0418   -0.0054 C   0  0  0  0  0  0  0  0  0  0  0  0
    0.3843    0.1627   -0.3391 C   0  0  0  0  0  0  0  0  0  0  0  0
   -3.7624    3.1189    0.3368 C   0  0  0  0  0  0  0  0  0  0  0  0
    3.1060    0.6543   -0.6209 C   0  0  0  0  0  0  0  0  0  0  0  0
   -1.5294   -1.3784   -0.2251 C   0  0  0  0  0  0  0  0  0  0  0  0
   -1.0398   -0.0937   -0.1921 C   0  0  0  0  0  0  0  0  0  0  0  0
    7.5724   -0.5760    0.5262 N   0  0  0  0  0  0  0  0  0  0  0  0
   -4.6350    4.1493    0.5062 O   0  0  0  0  0  0  0  0  0  0  0  0
    4.4477    0.8969   -0.7594 O   0  0  0  0  0  0  0  0  0  0  0  0
    0.4835   -2.4969    1.3765 H   0  0  0  0  0  0  0  0  0  0  0  0
    0.5088   -4.0761    0.5842 H   0  0  0  0  0  0  0  0  0  0  0  0
   -0.9285   -3.5604    1.4721 H   0  0  0  0  0  0  0  0  0  0  0  0
    9.3499    0.0158   -0.4946 H   0  0  0  0  0  0  0  0  0  0  0  0
    8.7106   -1.5805   -0.9440 H   0  0  0  0  0  0  0  0  0  0  0  0
    9.5278   -1.3757    0.5969 H   0  0  0  0  0  0  0  0  0  0  0  0
    8.5833   -0.0328    2.2978 H   0  0  0  0  0  0  0  0  0  0  0  0
    8.0249    1.3474    1.3431 H   0  0  0  0  0  0  0  0  0  0  0  0
    6.8933    0.3599    2.3137 H   0  0  0  0  0  0  0  0  0  0  0  0
    0.1575   -2.3845   -1.1431 H   0  0  0  0  0  0  0  0  0  0  0  0
   -1.2587   -3.3802   -1.0001 H   0  0  0  0  0  0  0  0  0  0  0  0
   -6.7169   -2.4797    0.3140 H   0  0  0  0  0  0  0  0  0  0  0  0
   -5.7632   -2.0718   -1.9396 H   0  0  0  0  0  0  0  0  0  0  0  0
   -5.2565   -2.3746    2.3168 H   0  0  0  0  0  0  0  0  0  0  0  0
   -3.3589   -1.5619   -2.1956 H   0  0  0  0  0  0  0  0  0  0  0  0
   -2.8523   -1.8630    2.0738 H   0  0  0  0  0  0  0  0  0  0  0  0
   -1.8310    0.9879    2.1436 H   0  0  0  0  0  0  0  0  0  0  0  0
   -2.3244    1.2728   -2.1251 H   0  0  0  0  0  0  0  0  0  0  0  0
    0.3032    0.3345   -2.4962 H   0  0  0  0  0  0  0  0  0  0  0  0
    0.7957    0.0582    1.7840 H   0  0  0  0  0  0  0  0  0  0  0  0
   -3.4135    2.8553    2.4502 H   0  0  0  0  0  0  0  0  0  0  0  0
   -3.9031    3.1357   -1.8208 H   0  0  0  0  0  0  0  0  0  0  0  0
    2.7146    0.7700   -2.7376 H   0  0  0  0  0  0  0  0  0  0  0  0
    3.1683    0.5083    1.5509 H   0  0  0  0  0  0  0  0  0  0  0  0
    6.4776   -0.6864   -1.2738 H   0  0  0  0  0  0  0  0  0  0  0  0
    7.0540    0.9260   -0.8920 H   0  0  0  0  0  0  0  0  0  0  0  0
    4.9024   -0.6267    0.6064 H   0  0  0  0  0  0  0  0  0  0  0  0
    5.3997    1.0450    1.0203 H   0  0  0  0  0  0  0  0  0  0  0  0
   -4.9426    4.4484   -0.3667 H   0  0  0  0  0  0  0  0  0  0  0  0
  1 30  1  0
  1 31  1  0
  1 32  1  0
  2 33  1  0
  2 34  1  0
  2 35  1  0
  3 36  1  0
  3 37  1  0
  3 38  1  0
  4  1  1  0
  4 39  1  0
  4 40  1  0
  5 41  1  0
  6  5  2  0
  6 42  1  0
  7  5  1  0
  7 43  1  0
  8  6  1  0
  8 44  1  0
  9  7  2  0
  9 45  1  0
 10 14  2  0
 10 46  1  0
 11 15  1  0
 11 47  1  0
 12 16  2  0
 12 48  1  0
 13 17  1  0
 13 49  1  0
 14 23  1  0
 14 50  1  0
 15 23  2  0
 15 51  1  0
 16 52  1  0
 17 53  1  0
 18 19  1  0
 18 54  1  0
 18 55  1  0
 19 56  1  0
 19 57  1  0
 20  8  2  0
 20  9  1  0
 21 10  1  0
 21 11  2  0
 22 12  1  0
 22 13  2  0
 24 16  1  0
 24 17  2  0
 25  4  1  0
 25 20  1  0
 26 21  1  0
 26 22  1  0
 26 25  2  0
 27  2  1  0
 27  3  1  0
 27 18  1  0
 28 23  1  0
 28 58  1  0
 29 19  1  0
 29 24  1  0
M  END
