5381458
     RDKit          3D

 29 30  0  0  1  0  0  0  0  0999 V2000
   -5.8771    0.5433   -0.0315 C   0  0  0  0  0  0  0  0  0  0  0  0
    3.6075    2.3870   -0.0902 C   0  0  0  0  0  0  0  0  0  0  0  0
   -4.4541    0.0905   -0.0296 C   0  0  0  0  0  0  0  0  0  0  0  0
   -3.4080    0.9264    0.0266 C   0  0  0  0  0  0  0  0  0  0  0  0
   -0.9912    1.3109    0.0777 C   0  0  0  0  0  0  0  0  0  0  0  0
    2.6096    1.2626   -0.3500 C   0  0  0  0  0  0  0  0  0  0  0  0
   -2.0425    0.4868    0.0247 C   0  0  0  0  0  0  0  0  0  0  0  0
    0.3373    0.7607    0.0655 C   0  0  0  0  0  0  0  0  0  0  0  0
    0.5281   -0.5701    0.0308 C   0  0  0  0  0  0  0  0  0  0  0  0
    2.9992   -0.0190    0.3759 C   0  0  0  0  0  0  0  0  0  0  0  0
    1.9367   -1.0600    0.0899 C   0  0  0  0  0  0  0  0  0  0  0  0
   -0.6411   -1.4867   -0.0335 C   0  0  0  0  0  0  0  0  0  0  0  0
    4.2532   -0.4845   -0.0810 O   0  0  0  0  0  0  0  0  0  0  0  0
    2.2062   -2.2499   -0.0509 O   0  0  0  0  0  0  0  0  0  0  0  0
   -0.5038   -2.7049   -0.0778 O   0  0  0  0  0  0  0  0  0  0  0  0
    1.3258    1.7204    0.0923 O   0  0  0  0  0  0  0  0  0  0  0  0
   -1.8858   -0.9136   -0.0390 O   0  0  0  0  0  0  0  0  0  0  0  0
   -6.4044    0.1182    0.8280 H   0  0  0  0  0  0  0  0  0  0  0  0
   -6.3754    0.2021   -0.9441 H   0  0  0  0  0  0  0  0  0  0  0  0
   -5.9666    1.6331    0.0186 H   0  0  0  0  0  0  0  0  0  0  0  0
    4.6077    2.1326   -0.4531 H   0  0  0  0  0  0  0  0  0  0  0  0
    3.6689    2.6153    0.9797 H   0  0  0  0  0  0  0  0  0  0  0  0
    3.2822    3.3069   -0.5885 H   0  0  0  0  0  0  0  0  0  0  0  0
   -4.3143   -0.9862   -0.0793 H   0  0  0  0  0  0  0  0  0  0  0  0
   -3.5851    1.9981    0.0750 H   0  0  0  0  0  0  0  0  0  0  0  0
   -1.1097    2.3887    0.1265 H   0  0  0  0  0  0  0  0  0  0  0  0
    2.5676    1.0972   -1.4358 H   0  0  0  0  0  0  0  0  0  0  0  0
    3.0426    0.1319    1.4611 H   0  0  0  0  0  0  0  0  0  0  0  0
    4.4914   -1.2598    0.4555 H   0  0  0  0  0  0  0  0  0  0  0  0
  1 18  1  0
  1 19  1  0
  1 20  1  0
  2 21  1  0
  2 22  1  0
  2 23  1  0
  3  1  1  0
  3 24  1  0
  4  3  2  0
  4 25  1  0
  5  7  2  0
  5 26  1  0
  6  2  1  0
  6 10  1  0
  6 27  1  0
  7  4  1  0
  8  5  1  0
  9  8  2  0
  9 12  1  0
 10 11  1  0
 10 28  1  0
 11  9  1  0
 13 10  1  0
 13 29  1  0
 14 11  2  0
 15 12  2  0
 16  6  1  0
 16  8  1  0
 17  7  1  0
 17 12  1  0
M  END
