2537
     RDKit          3D

 27 28  0  0  1  0  0  0  0  0999 V2000
    2.3676    0.5153   -0.1924 C   0  0  0  0  0  0  0  0  0  0  0  0
    0.9057    1.1276    1.7038 C   0  0  0  0  0  0  0  0  0  0  0  0
   -0.4310    1.9190   -1.0963 C   0  0  0  0  0  0  0  0  0  0  0  0
    0.5689   -1.7483   -0.8515 C   0  0  0  0  0  0  0  0  0  0  0  0
   -0.0159   -0.5640   -1.6533 C   0  0  0  0  0  0  0  0  0  0  0  0
   -0.8584   -1.1836    1.1146 C   0  0  0  0  0  0  0  0  0  0  0  0
    0.6028   -1.2103    0.6019 C   0  0  0  0  0  0  0  0  0  0  0  0
   -1.3694   -0.0317    0.2721 C   0  0  0  0  0  0  0  0  0  0  0  0
    0.9678    0.2884    0.4111 C   0  0  0  0  0  0  0  0  0  0  0  0
   -0.2144    0.5208   -0.5698 C   0  0  0  0  0  0  0  0  0  0  0  0
   -2.5236    0.3669    0.2597 O   0  0  0  0  0  0  0  0  0  0  0  0
    2.5336    0.0122   -1.1475 H   0  0  0  0  0  0  0  0  0  0  0  0
    3.1412    0.1571    0.4966 H   0  0  0  0  0  0  0  0  0  0  0  0
    2.5459    1.5824   -0.3673 H   0  0  0  0  0  0  0  0  0  0  0  0
    1.6122    0.7384    2.4456 H   0  0  0  0  0  0  0  0  0  0  0  0
   -0.0812    1.1504    2.1737 H   0  0  0  0  0  0  0  0  0  0  0  0
    1.1747    2.1710    1.5025 H   0  0  0  0  0  0  0  0  0  0  0  0
    0.4428    2.2768   -1.6497 H   0  0  0  0  0  0  0  0  0  0  0  0
   -1.2923    1.9524   -1.7726 H   0  0  0  0  0  0  0  0  0  0  0  0
   -0.6326    2.6250   -0.2839 H   0  0  0  0  0  0  0  0  0  0  0  0
    1.5732   -2.0000   -1.2082 H   0  0  0  0  0  0  0  0  0  0  0  0
   -0.0480   -2.6478   -0.9503 H   0  0  0  0  0  0  0  0  0  0  0  0
   -0.9584   -0.8477   -2.1359 H   0  0  0  0  0  0  0  0  0  0  0  0
    0.6783   -0.2453   -2.4382 H   0  0  0  0  0  0  0  0  0  0  0  0
   -0.9222   -0.9376    2.1767 H   0  0  0  0  0  0  0  0  0  0  0  0
   -1.4018   -2.1053    0.8944 H   0  0  0  0  0  0  0  0  0  0  0  0
    1.2723   -1.7778    1.2529 H   0  0  0  0  0  0  0  0  0  0  0  0
  1 12  1  0
  1 13  1  0
  1 14  1  0
  2 15  1  0
  2 16  1  0
  2 17  1  0
  3 18  1  0
  3 19  1  0
  3 20  1  0
  4 21  1  0
  4 22  1  0
  5  4  1  0
  5 23  1  0
  5 24  1  0
  6  8  1  0
  6 25  1  0
  6 26  1  0
  7  4  1  0
  7  6  1  0
  7 27  1  0
  9  1  1  0
  9  2  1  0
  9  7  1  0
  9 10  1  0
 10  3  1  0
 10  5  1  0
 10  8  1  0
 11  8  2  0
M  END
