4276
     RDKit          3D

 26 27  0  0  0  0  0  0  0  0999 V2000
   -4.4675    0.4279   -0.7483 C   0  0  0  0  0  0  0  0  0  0  0  0
    1.2272    3.1225   -0.7325 C   0  0  0  0  0  0  0  0  0  0  0  0
   -3.5241   -0.4984   -0.5445 C   0  0  0  0  0  0  0  0  0  0  0  0
   -2.7104   -0.6144    0.7178 C   0  0  0  0  0  0  0  0  0  0  0  0
   -0.7052    0.8826    0.5837 C   0  0  0  0  0  0  0  0  0  0  0  0
   -0.4354   -1.5047    0.1893 C   0  0  0  0  0  0  0  0  0  0  0  0
    3.0342   -1.3852   -0.3995 C   0  0  0  0  0  0  0  0  0  0  0  0
   -1.2496   -0.4104    0.4912 C   0  0  0  0  0  0  0  0  0  0  0  0
    0.6595    1.0963    0.3755 C   0  0  0  0  0  0  0  0  0  0  0  0
    0.9088   -1.2666   -0.0116 C   0  0  0  0  0  0  0  0  0  0  0  0
    1.4415   -0.0011    0.0789 C   0  0  0  0  0  0  0  0  0  0  0  0
    1.1888    2.3416    0.4637 O   0  0  0  0  0  0  0  0  0  0  0  0
    1.8497   -2.2032   -0.3110 O   0  0  0  0  0  0  0  0  0  0  0  0
    2.7824    0.0131   -0.1526 O   0  0  0  0  0  0  0  0  0  0  0  0
   -5.0231    0.4508   -1.6794 H   0  0  0  0  0  0  0  0  0  0  0  0
   -4.6998    1.1748    0.0026 H   0  0  0  0  0  0  0  0  0  0  0  0
    1.8373    2.6267   -1.4941 H   0  0  0  0  0  0  0  0  0  0  0  0
    1.6790    4.0895   -0.4954 H   0  0  0  0  0  0  0  0  0  0  0  0
    0.2143    3.2909   -1.1114 H   0  0  0  0  0  0  0  0  0  0  0  0
   -3.3367   -1.2281   -1.3286 H   0  0  0  0  0  0  0  0  0  0  0  0
   -3.0668    0.0940    1.4773 H   0  0  0  0  0  0  0  0  0  0  0  0
   -2.8838   -1.6078    1.1518 H   0  0  0  0  0  0  0  0  0  0  0  0
   -1.3486    1.7278    0.8186 H   0  0  0  0  0  0  0  0  0  0  0  0
   -0.8390   -2.5086    0.1131 H   0  0  0  0  0  0  0  0  0  0  0  0
    3.7648   -1.7451    0.3341 H   0  0  0  0  0  0  0  0  0  0  0  0
    3.4609   -1.4929   -1.4033 H   0  0  0  0  0  0  0  0  0  0  0  0
  1 15  1  0
  1 16  1  0
  2 17  1  0
  2 18  1  0
  2 19  1  0
  3  1  2  0
  3 20  1  0
  4  3  1  0
  4 21  1  0
  4 22  1  0
  5 23  1  0
  6 24  1  0
  7 25  1  0
  7 26  1  0
  8  4  1  0
  8  5  2  0
  8  6  1  0
  9  5  1  0
 10  6  2  0
 11  9  2  0
 11 10  1  0
 12  2  1  0
 12  9  1  0
 13  7  1  0
 13 10  1  0
 14  7  1  0
 14 11  1  0
M  END
