26955
     RDKit          3D

 34 34  0  0  0  0  0  0  0  0999 V2000
    0.0244    2.5175    0.5075 C   0  0  0  0  0  0  0  0  0  0  0  0
    4.3599    0.6750   -0.7513 C   0  0  0  0  0  0  0  0  0  0  0  0
   -1.3269   -1.6969   -1.4377 C   0  0  0  0  0  0  0  0  0  0  0  0
   -1.3142   -2.2595    1.0102 C   0  0  0  0  0  0  0  0  0  0  0  0
   -3.2234    0.6915   -0.5494 C   0  0  0  0  0  0  0  0  0  0  0  0
   -2.3183    1.7684    0.0296 C   0  0  0  0  0  0  0  0  0  0  0  0
    1.8851    0.3163   -0.2428 C   0  0  0  0  0  0  0  0  0  0  0  0
    0.8956   -0.3622    0.3295 C   0  0  0  0  0  0  0  0  0  0  0  0
   -2.9716   -0.6316    0.1513 C   0  0  0  0  0  0  0  0  0  0  0  0
   -0.8820    1.3367    0.2466 C   0  0  0  0  0  0  0  0  0  0  0  0
    3.2918   -0.1434   -0.0745 C   0  0  0  0  0  0  0  0  0  0  0  0
   -0.4967    0.0365    0.2019 C   0  0  0  0  0  0  0  0  0  0  0  0
   -1.5053   -1.1159   -0.0161 C   0  0  0  0  0  0  0  0  0  0  0  0
    3.5814   -1.1325    0.5951 O   0  0  0  0  0  0  0  0  0  0  0  0
   -0.5099    3.2744    1.0947 H   0  0  0  0  0  0  0  0  0  0  0  0
    0.3285    2.9867   -0.4333 H   0  0  0  0  0  0  0  0  0  0  0  0
    0.9056    2.2702    1.1048 H   0  0  0  0  0  0  0  0  0  0  0  0
    5.0708    0.0025   -1.2394 H   0  0  0  0  0  0  0  0  0  0  0  0
    4.8748    1.2839   -0.0040 H   0  0  0  0  0  0  0  0  0  0  0  0
    3.9367    1.3293   -1.5180 H   0  0  0  0  0  0  0  0  0  0  0  0
   -1.4176   -0.9242   -2.2087 H   0  0  0  0  0  0  0  0  0  0  0  0
   -0.3421   -2.1632   -1.5597 H   0  0  0  0  0  0  0  0  0  0  0  0
   -2.0773   -2.4679   -1.6469 H   0  0  0  0  0  0  0  0  0  0  0  0
   -0.3903   -2.8224    0.8389 H   0  0  0  0  0  0  0  0  0  0  0  0
   -1.2944   -1.8750    2.0366 H   0  0  0  0  0  0  0  0  0  0  0  0
   -2.1345   -2.9846    0.9441 H   0  0  0  0  0  0  0  0  0  0  0  0
   -4.2715    0.9879   -0.4260 H   0  0  0  0  0  0  0  0  0  0  0  0
   -3.0519    0.5948   -1.6275 H   0  0  0  0  0  0  0  0  0  0  0  0
   -2.3464    2.6342   -0.6438 H   0  0  0  0  0  0  0  0  0  0  0  0
   -2.7255    2.1010    0.9932 H   0  0  0  0  0  0  0  0  0  0  0  0
    1.7311    1.1642   -0.8988 H   0  0  0  0  0  0  0  0  0  0  0  0
    1.1106   -1.2257    0.9489 H   0  0  0  0  0  0  0  0  0  0  0  0
   -3.2071   -0.5107    1.2181 H   0  0  0  0  0  0  0  0  0  0  0  0
   -3.6709   -1.3853   -0.2325 H   0  0  0  0  0  0  0  0  0  0  0  0
  1 15  1  0
  1 16  1  0
  1 17  1  0
  2 18  1  0
  2 19  1  0
  2 20  1  0
  3 21  1  0
  3 22  1  0
  3 23  1  0
  4 24  1  0
  4 25  1  0
  4 26  1  0
  5  6  1  0
  5 27  1  0
  5 28  1  0
  6 10  1  0
  6 29  1  0
  6 30  1  0
  7 11  1  0
  7 31  1  0
  8  7  2  0
  8 32  1  0
  9  5  1  0
  9 33  1  0
  9 34  1  0
 10  1  1  0
 11  2  1  0
 12  8  1  0
 12 10  2  0
 13  3  1  0
 13  4  1  0
 13  9  1  0
 13 12  1  0
 14 11  2  0
M  END
