5458747
     RDKit          3D

 53 55  0  0  1  0  0  0  0  0999 V2000
   -0.6504   -3.1860    0.5141 C   0  0  0  0  0  0  0  0  0  0  0  0
    3.5886    1.4747   -1.7666 C   0  0  0  0  0  0  0  0  0  0  0  0
    4.8709    0.4545    0.0833 C   0  0  0  0  0  0  0  0  0  0  0  0
    0.2881    0.8853   -1.3068 C   0  0  0  0  0  0  0  0  0  0  0  0
    1.8585    2.8350    0.5858 C   0  0  0  0  0  0  0  0  0  0  0  0
   -2.1660   -0.0880   -0.4800 C   0  0  0  0  0  0  0  0  0  0  0  0
   -4.0944    1.4329    0.3253 C   0  0  0  0  0  0  0  0  0  0  0  0
    3.2763    2.2849    0.6110 C   0  0  0  0  0  0  0  0  0  0  0  0
    0.8396    1.7692    0.9800 C   0  0  0  0  0  0  0  0  0  0  0  0
   -1.5046   -0.2625    0.8802 C   0  0  0  0  0  0  0  0  0  0  0  0
   -5.4614    1.3742    0.1849 C   0  0  0  0  0  0  0  0  0  0  0  0
    2.4569   -1.2766   -0.8721 C   0  0  0  0  0  0  0  0  0  0  0  0
   -4.6713   -0.3737   -0.8496 C   0  0  0  0  0  0  0  0  0  0  0  0
    0.0890   -1.9900   -0.1015 C   0  0  0  0  0  0  0  0  0  0  0  0
   -3.6069    0.3047   -0.3440 C   0  0  0  0  0  0  0  0  0  0  0  0
    1.5557   -2.3586   -0.3240 C   0  0  0  0  0  0  0  0  0  0  0  0
    2.3624   -0.0195    0.0041 C   0  0  0  0  0  0  0  0  0  0  0  0
    3.4835    1.0448   -0.2905 C   0  0  0  0  0  0  0  0  0  0  0  0
    0.8704    0.5002    0.0782 C   0  0  0  0  0  0  0  0  0  0  0  0
   -0.0235   -0.6657    0.7187 C   0  0  0  0  0  0  0  0  0  0  0  0
    1.9894   -3.4977   -0.1477 O   0  0  0  0  0  0  0  0  0  0  0  0
    0.4703   -0.9178    2.0472 O   0  0  0  0  0  0  0  0  0  0  0  0
   -5.8212    0.2758   -0.5301 O   0  0  0  0  0  0  0  0  0  0  0  0
   -1.7298   -3.0153    0.5559 H   0  0  0  0  0  0  0  0  0  0  0  0
   -0.4978   -4.0909   -0.0854 H   0  0  0  0  0  0  0  0  0  0  0  0
   -0.2948   -3.4028    1.5268 H   0  0  0  0  0  0  0  0  0  0  0  0
    4.5337    2.0035   -1.9451 H   0  0  0  0  0  0  0  0  0  0  0  0
    2.8099    2.1791   -2.0640 H   0  0  0  0  0  0  0  0  0  0  0  0
    3.5742    0.6220   -2.4510 H   0  0  0  0  0  0  0  0  0  0  0  0
    5.6513    1.2239    0.0394 H   0  0  0  0  0  0  0  0  0  0  0  0
    5.1732   -0.3456   -0.5997 H   0  0  0  0  0  0  0  0  0  0  0  0
    4.8721    0.0483    1.1010 H   0  0  0  0  0  0  0  0  0  0  0  0
    1.0871    1.2181   -1.9667 H   0  0  0  0  0  0  0  0  0  0  0  0
   -0.3516    1.7727   -1.2696 H   0  0  0  0  0  0  0  0  0  0  0  0
   -0.1347    0.0606   -1.8818 H   0  0  0  0  0  0  0  0  0  0  0  0
    1.6208    3.2406   -0.4033 H   0  0  0  0  0  0  0  0  0  0  0  0
    1.7875    3.6745    1.2878 H   0  0  0  0  0  0  0  0  0  0  0  0
   -2.1274   -0.9934   -1.0908 H   0  0  0  0  0  0  0  0  0  0  0  0
   -1.8405    0.7508   -1.0680 H   0  0  0  0  0  0  0  0  0  0  0  0
   -3.5405    2.2015    0.8451 H   0  0  0  0  0  0  0  0  0  0  0  0
    3.9749    3.0820    0.3258 H   0  0  0  0  0  0  0  0  0  0  0  0
    3.5205    2.0250    1.6502 H   0  0  0  0  0  0  0  0  0  0  0  0
    1.0335    1.4912    2.0236 H   0  0  0  0  0  0  0  0  0  0  0  0
   -0.1550    2.2301    0.9689 H   0  0  0  0  0  0  0  0  0  0  0  0
   -1.5868    0.6481    1.4848 H   0  0  0  0  0  0  0  0  0  0  0  0
   -2.0426   -1.0125    1.4746 H   0  0  0  0  0  0  0  0  0  0  0  0
   -6.2747    2.0033    0.5159 H   0  0  0  0  0  0  0  0  0  0  0  0
    3.4747   -1.6772   -0.8845 H   0  0  0  0  0  0  0  0  0  0  0  0
    2.1631   -1.0869   -1.9089 H   0  0  0  0  0  0  0  0  0  0  0  0
   -4.7909   -1.2800   -1.4254 H   0  0  0  0  0  0  0  0  0  0  0  0
   -0.2986   -1.8753   -1.1175 H   0  0  0  0  0  0  0  0  0  0  0  0
    2.6023   -0.3524    1.0248 H   0  0  0  0  0  0  0  0  0  0  0  0
    1.2229   -1.5291    2.0041 H   0  0  0  0  0  0  0  0  0  0  0  0
  1 24  1  0
  1 25  1  0
  1 26  1  0
  2 27  1  0
  2 28  1  0
  2 29  1  0
  3 30  1  0
  3 31  1  0
  3 32  1  0
  4 33  1  0
  4 34  1  0
  4 35  1  0
  5 36  1  0
  5 37  1  0
  6 15  1  0
  6 38  1  0
  6 39  1  0
  7 11  2  0
  7 40  1  0
  8  5  1  0
  8 41  1  0
  8 42  1  0
  9  5  1  0
  9 43  1  0
  9 44  1  0
 10  6  1  0
 10 45  1  0
 10 46  1  0
 11 47  1  0
 12 16  1  0
 12 48  1  0
 12 49  1  0
 13 50  1  0
 14  1  1  0
 14 16  1  0
 14 51  1  0
 15  7  1  0
 15 13  2  0
 17 12  1  0
 17 18  1  0
 17 52  1  0
 18  2  1  0
 18  3  1  0
 18  8  1  0
 19  4  1  0
 19  9  1  0
 19 17  1  0
 19 20  1  0
 20 10  1  0
 20 14  1  0
 21 16  2  0
 22 20  1  0
 22 53  1  0
 23 11  1  0
 23 13  1  0
M  END
