5281708
     RDKit          3D

 29 31  0  0  0  0  0  0  0  0999 V2000
   -2.6981    0.1514   -1.2081 C   0  0  0  0  0  0  0  0  0  0  0  0
   -2.6652    0.1189    1.2074 C   0  0  0  0  0  0  0  0  0  0  0  0
   -4.0859    0.0114   -1.1913 C   0  0  0  0  0  0  0  0  0  0  0  0
   -4.0529   -0.0214    1.2244 C   0  0  0  0  0  0  0  0  0  0  0  0
    4.1327   -1.2804    0.0188 C   0  0  0  0  0  0  0  0  0  0  0  0
    2.7693   -1.5780    0.0011 C   0  0  0  0  0  0  0  0  0  0  0  0
    3.6275    1.0839    0.0106 C   0  0  0  0  0  0  0  0  0  0  0  0
    0.0484    1.5675   -0.0189 C   0  0  0  0  0  0  0  0  0  0  0  0
   -1.9846    0.2056   -0.0089 C   0  0  0  0  0  0  0  0  0  0  0  0
   -4.7633   -0.0750    0.0250 C   0  0  0  0  0  0  0  0  0  0  0  0
    4.5611    0.0475    0.0234 C   0  0  0  0  0  0  0  0  0  0  0  0
    1.8360   -0.5382   -0.0113 C   0  0  0  0  0  0  0  0  0  0  0  0
   -0.5201    0.3524   -0.0269 C   0  0  0  0  0  0  0  0  0  0  0  0
    2.2640    0.7889   -0.0064 C   0  0  0  0  0  0  0  0  0  0  0  0
    0.3899   -0.8260   -0.0341 C   0  0  0  0  0  0  0  0  0  0  0  0
   -6.1172   -0.2120    0.0417 O   0  0  0  0  0  0  0  0  0  0  0  0
    5.8921    0.3319    0.0414 O   0  0  0  0  0  0  0  0  0  0  0  0
   -0.0268   -1.9767   -0.0690 O   0  0  0  0  0  0  0  0  0  0  0  0
    1.3932    1.8482   -0.0190 O   0  0  0  0  0  0  0  0  0  0  0  0
   -2.1843    0.2162   -2.1644 H   0  0  0  0  0  0  0  0  0  0  0  0
   -2.1258    0.1580    2.1508 H   0  0  0  0  0  0  0  0  0  0  0  0
   -4.6275   -0.0295   -2.1325 H   0  0  0  0  0  0  0  0  0  0  0  0
   -4.5750   -0.0886    2.1749 H   0  0  0  0  0  0  0  0  0  0  0  0
    4.8527   -2.0945    0.0287 H   0  0  0  0  0  0  0  0  0  0  0  0
    2.4566   -2.6183   -0.0027 H   0  0  0  0  0  0  0  0  0  0  0  0
    3.9635    2.1178    0.0143 H   0  0  0  0  0  0  0  0  0  0  0  0
   -0.5128    2.4940   -0.0088 H   0  0  0  0  0  0  0  0  0  0  0  0
   -6.4433   -0.2312   -0.8744 H   0  0  0  0  0  0  0  0  0  0  0  0
    6.3926   -0.5021    0.0486 H   0  0  0  0  0  0  0  0  0  0  0  0
  1  3  2  0
  1 20  1  0
  2  4  1  0
  2 21  1  0
  3 10  1  0
  3 22  1  0
  4 10  2  0
  4 23  1  0
  5 24  1  0
  6  5  2  0
  6 25  1  0
  7 11  2  0
  7 26  1  0
  8 27  1  0
  9  1  1  0
  9  2  2  0
 11  5  1  0
 12  6  1  0
 12 14  2  0
 12 15  1  0
 13  8  2  0
 13  9  1  0
 13 15  1  0
 14  7  1  0
 16 10  1  0
 16 28  1  0
 17 11  1  0
 17 29  1  0
 18 15  2  0
 19  8  1  0
 19 14  1  0
M  END
