24360
     RDKit          3D

 42 46  0  0  1  0  0  0  0  0999 V2000
   -4.6568    2.7230   -1.3626 C   0  0  0  0  0  0  0  0  0  0  0  0
   -3.5579    1.6800   -1.3857 C   0  0  0  0  0  0  0  0  0  0  0  0
    6.4649    0.8617    0.0588 C   0  0  0  0  0  0  0  0  0  0  0  0
    5.7941    2.0773    0.1165 C   0  0  0  0  0  0  0  0  0  0  0  0
    5.7387   -0.3245    0.0006 C   0  0  0  0  0  0  0  0  0  0  0  0
    4.3974    2.1079    0.1161 C   0  0  0  0  0  0  0  0  0  0  0  0
    3.5933   -1.4924   -0.0590 C   0  0  0  0  0  0  0  0  0  0  0  0
   -0.7849    0.5804    0.0305 C   0  0  0  0  0  0  0  0  0  0  0  0
    1.1768   -2.4701   -0.1096 C   0  0  0  0  0  0  0  0  0  0  0  0
   -3.8643   -1.6656   -0.1310 C   0  0  0  0  0  0  0  0  0  0  0  0
    4.3351   -0.3008   -0.0003 C   0  0  0  0  0  0  0  0  0  0  0  0
    2.2215   -1.4046   -0.0566 C   0  0  0  0  0  0  0  0  0  0  0  0
   -2.4538   -1.1872   -0.0707 C   0  0  0  0  0  0  0  0  0  0  0  0
   -2.1663    0.1245    0.0091 C   0  0  0  0  0  0  0  0  0  0  0  0
    3.6419    0.9414    0.0587 C   0  0  0  0  0  0  0  0  0  0  0  0
    0.1948   -0.3262   -0.0069 C   0  0  0  0  0  0  0  0  0  0  0  0
    1.6396   -0.1463    0.0033 C   0  0  0  0  0  0  0  0  0  0  0  0
   -1.3507   -2.2121   -0.1176 C   0  0  0  0  0  0  0  0  0  0  0  0
   -4.5692    0.5819    0.6079 C   0  0  0  0  0  0  0  0  0  0  0  0
   -3.2782    1.1371    0.0177 C   0  0  0  0  0  0  0  0  0  0  0  0
    2.2954    1.0210    0.0607 N   0  0  0  0  0  0  0  0  0  0  0  0
   -0.0735   -1.6835   -0.0746 N   0  0  0  0  0  0  0  0  0  0  0  0
   -1.6047   -3.4119   -0.1929 O   0  0  0  0  0  0  0  0  0  0  0  0
   -5.3765    1.2946    1.2018 O   0  0  0  0  0  0  0  0  0  0  0  0
   -2.9318    2.2270    0.8757 O   0  0  0  0  0  0  0  0  0  0  0  0
   -4.8249   -0.7324    0.4102 O   0  0  0  0  0  0  0  0  0  0  0  0
   -5.6365    2.2874   -1.1458 H   0  0  0  0  0  0  0  0  0  0  0  0
   -4.7365    3.1878   -2.3519 H   0  0  0  0  0  0  0  0  0  0  0  0
   -4.4593    3.5259   -0.6458 H   0  0  0  0  0  0  0  0  0  0  0  0
   -3.8397    0.8744   -2.0748 H   0  0  0  0  0  0  0  0  0  0  0  0
   -2.6542    2.1547   -1.7890 H   0  0  0  0  0  0  0  0  0  0  0  0
    7.5504    0.8369    0.0591 H   0  0  0  0  0  0  0  0  0  0  0  0
    6.3555    3.0061    0.1620 H   0  0  0  0  0  0  0  0  0  0  0  0
    6.2774   -1.2687   -0.0442 H   0  0  0  0  0  0  0  0  0  0  0  0
    3.8985    3.0743    0.1620 H   0  0  0  0  0  0  0  0  0  0  0  0
    4.0815   -2.4613   -0.1051 H   0  0  0  0  0  0  0  0  0  0  0  0
   -0.5702    1.6424    0.0686 H   0  0  0  0  0  0  0  0  0  0  0  0
    1.2062   -3.0473   -1.0385 H   0  0  0  0  0  0  0  0  0  0  0  0
    1.2021   -3.1327    0.7605 H   0  0  0  0  0  0  0  0  0  0  0  0
   -4.1548   -1.8894   -1.1627 H   0  0  0  0  0  0  0  0  0  0  0  0
   -3.9804   -2.5822    0.4566 H   0  0  0  0  0  0  0  0  0  0  0  0
   -2.7008    1.8668    1.7495 H   0  0  0  0  0  0  0  0  0  0  0  0
  1 27  1  0
  1 28  1  0
  1 29  1  0
  2  1  1  0
  2 30  1  0
  2 31  1  0
  3  4  2  0
  3 32  1  0
  4 33  1  0
  5  3  1  0
  5 34  1  0
  6  4  1  0
  6 35  1  0
  7 11  1  0
  7 36  1  0
  8 37  1  0
  9 12  1  0
  9 38  1  0
  9 39  1  0
 10 40  1  0
 10 41  1  0
 11  5  2  0
 11 15  1  0
 12  7  2  0
 12 17  1  0
 13 10  1  0
 13 18  1  0
 14  8  1  0
 14 13  2  0
 15  6  2  0
 16  8  2  0
 16 17  1  0
 20  2  1  0
 20 14  1  0
 20 19  1  0
 21 15  1  0
 21 17  2  0
 22  9  1  0
 22 16  1  0
 22 18  1  0
 23 18  2  0
 24 19  2  0
 25 20  1  0
 25 42  1  0
 26 10  1  0
 26 19  1  0
M  END
