72313
     RDKit          3D

 54 58  0  0  1  0  0  0  0  0999 V2000
   -3.8285   -3.1020    1.3568 C   0  0  0  0  0  0  0  0  0  0  0  0
    6.1854    3.0423    0.6392 C   0  0  0  0  0  0  0  0  0  0  0  0
   -3.6197    4.0310   -1.6369 C   0  0  0  0  0  0  0  0  0  0  0  0
    5.5755   -0.5693    0.4826 C   0  0  0  0  0  0  0  0  0  0  0  0
    4.5129   -1.4445    0.2314 C   0  0  0  0  0  0  0  0  0  0  0  0
    1.5333   -2.9004   -0.4701 C   0  0  0  0  0  0  0  0  0  0  0  0
    0.1514   -2.9971   -1.1587 C   0  0  0  0  0  0  0  0  0  0  0  0
    4.1347    1.3594    0.1545 C   0  0  0  0  0  0  0  0  0  0  0  0
   -1.2704    0.3791   -0.1615 C   0  0  0  0  0  0  0  0  0  0  0  0
   -2.1551   -2.2259   -1.1038 C   0  0  0  0  0  0  0  0  0  0  0  0
   -4.3705    0.4904    1.3523 C   0  0  0  0  0  0  0  0  0  0  0  0
   -3.3782   -1.6617    1.1251 C   0  0  0  0  0  0  0  0  0  0  0  0
    5.3871    0.8106    0.4442 C   0  0  0  0  0  0  0  0  0  0  0  0
    3.2399   -0.9158   -0.0618 C   0  0  0  0  0  0  0  0  0  0  0  0
    1.9715   -1.4819   -0.3607 C   0  0  0  0  0  0  0  0  0  0  0  0
   -2.7559    0.1628   -0.5112 C   0  0  0  0  0  0  0  0  0  0  0  0
   -3.1671   -1.3241   -0.3747 C   0  0  0  0  0  0  0  0  0  0  0  0
   -3.6349    1.0069    0.3620 C   0  0  0  0  0  0  0  0  0  0  0  0
    3.0795    0.4740   -0.0933 C   0  0  0  0  0  0  0  0  0  0  0  0
   -0.3627   -0.6059   -0.9109 C   0  0  0  0  0  0  0  0  0  0  0  0
    1.0815   -0.4446   -0.5446 C   0  0  0  0  0  0  0  0  0  0  0  0
   -3.7610    2.4412    0.0989 C   0  0  0  0  0  0  0  0  0  0  0  0
    1.7604    0.7321   -0.4020 N   0  0  0  0  0  0  0  0  0  0  0  0
   -0.7931   -2.0003   -0.6097 N   0  0  0  0  0  0  0  0  0  0  0  0
   -4.0292    3.2666    0.9588 O   0  0  0  0  0  0  0  0  0  0  0  0
    6.4399    1.6405    0.6930 O   0  0  0  0  0  0  0  0  0  0  0  0
   -3.5324    2.6643   -1.2206 O   0  0  0  0  0  0  0  0  0  0  0  0
   -4.3942   -0.8281    1.7217 O   0  0  0  0  0  0  0  0  0  0  0  0
   -3.0493   -3.8222    1.0937 H   0  0  0  0  0  0  0  0  0  0  0  0
   -4.0873   -3.2562    2.4105 H   0  0  0  0  0  0  0  0  0  0  0  0
   -4.7298   -3.3271    0.7763 H   0  0  0  0  0  0  0  0  0  0  0  0
    7.1295    3.5504    0.8615 H   0  0  0  0  0  0  0  0  0  0  0  0
    5.8826    3.3593   -0.3646 H   0  0  0  0  0  0  0  0  0  0  0  0
    5.4691    3.3523    1.4076 H   0  0  0  0  0  0  0  0  0  0  0  0
   -4.6257    4.4196   -1.4521 H   0  0  0  0  0  0  0  0  0  0  0  0
   -3.4185    4.0728   -2.7106 H   0  0  0  0  0  0  0  0  0  0  0  0
   -2.8703    4.6338   -1.1151 H   0  0  0  0  0  0  0  0  0  0  0  0
    6.5569   -0.9788    0.7094 H   0  0  0  0  0  0  0  0  0  0  0  0
    4.6751   -2.5181    0.2644 H   0  0  0  0  0  0  0  0  0  0  0  0
    2.2657   -3.4866   -1.0361 H   0  0  0  0  0  0  0  0  0  0  0  0
    1.4701   -3.3285    0.5380 H   0  0  0  0  0  0  0  0  0  0  0  0
    0.2621   -2.8580   -2.2426 H   0  0  0  0  0  0  0  0  0  0  0  0
   -0.2301   -4.0131   -0.9994 H   0  0  0  0  0  0  0  0  0  0  0  0
    3.9266    2.4210    0.1093 H   0  0  0  0  0  0  0  0  0  0  0  0
   -1.1113    0.2849    0.9221 H   0  0  0  0  0  0  0  0  0  0  0  0
   -0.9895    1.4096   -0.4167 H   0  0  0  0  0  0  0  0  0  0  0  0
   -2.4416   -3.2748   -0.9723 H   0  0  0  0  0  0  0  0  0  0  0  0
   -2.2057   -2.0322   -2.1840 H   0  0  0  0  0  0  0  0  0  0  0  0
   -5.0609    1.0539    1.9658 H   0  0  0  0  0  0  0  0  0  0  0  0
   -2.4535   -1.5033    1.6942 H   0  0  0  0  0  0  0  0  0  0  0  0
   -2.8995    0.4218   -1.5685 H   0  0  0  0  0  0  0  0  0  0  0  0
   -4.1390   -1.4444   -0.8771 H   0  0  0  0  0  0  0  0  0  0  0  0
   -0.4480   -0.4202   -1.9916 H   0  0  0  0  0  0  0  0  0  0  0  0
    1.3625    1.6557   -0.5031 H   0  0  0  0  0  0  0  0  0  0  0  0
  1 29  1  0
  1 30  1  0
  1 31  1  0
  2 32  1  0
  2 33  1  0
  2 34  1  0
  3 35  1  0
  3 36  1  0
  3 37  1  0
  4 13  2  0
  4 38  1  0
  5  4  1  0
  5 39  1  0
  6 40  1  0
  6 41  1  0
  7  6  1  0
  7 42  1  0
  7 43  1  0
  8 13  1  0
  8 44  1  0
  9 45  1  0
  9 46  1  0
 10 47  1  0
 10 48  1  0
 11 49  1  0
 12  1  1  0
 12 50  1  0
 14  5  2  0
 14 19  1  0
 15  6  1  0
 15 14  1  0
 16  9  1  0
 16 18  1  0
 16 51  1  0
 17 10  1  0
 17 12  1  0
 17 16  1  0
 17 52  1  0
 18 11  2  0
 18 22  1  0
 19  8  2  0
 20  9  1  0
 20 21  1  0
 20 53  1  0
 21 15  2  0
 23 19  1  0
 23 21  1  0
 23 54  1  0
 24  7  1  0
 24 10  1  0
 24 20  1  0
 25 22  2  0
 26  2  1  0
 26 13  1  0
 27  3  1  0
 27 22  1  0
 28 11  1  0
 28 12  1  0
M  END
