5281707
     RDKit          3D

 28 31  0  0  0  0  0  0  0  0999 V2000
    4.2950   -0.5959    0.0002 C   0  0  0  0  0  0  0  0  0  0  0  0
   -3.6286    1.7983   -0.0001 C   0  0  0  0  0  0  0  0  0  0  0  0
    3.0766   -1.2887    0.0001 C   0  0  0  0  0  0  0  0  0  0  0  0
   -2.2306    1.7691   -0.0004 C   0  0  0  0  0  0  0  0  0  0  0  0
    3.1549    1.5561    0.0001 C   0  0  0  0  0  0  0  0  0  0  0  0
   -3.7184   -0.6252    0.0002 C   0  0  0  0  0  0  0  0  0  0  0  0
    4.3308    0.8004    0.0002 C   0  0  0  0  0  0  0  0  0  0  0  0
   -4.3676    0.6086    0.0002 C   0  0  0  0  0  0  0  0  0  0  0  0
    1.8785   -0.5523   -0.0001 C   0  0  0  0  0  0  0  0  0  0  0  0
   -1.5763    0.5411   -0.0003 C   0  0  0  0  0  0  0  0  0  0  0  0
    1.9570    0.8432   -0.0001 C   0  0  0  0  0  0  0  0  0  0  0  0
   -2.3278   -0.6445   -0.0001 C   0  0  0  0  0  0  0  0  0  0  0  0
    0.4932   -0.8547   -0.0002 C   0  0  0  0  0  0  0  0  0  0  0  0
   -0.1540    0.3549   -0.0003 C   0  0  0  0  0  0  0  0  0  0  0  0
   -0.2652   -2.0862   -0.0002 C   0  0  0  0  0  0  0  0  0  0  0  0
    5.5353    1.4404    0.0004 O   0  0  0  0  0  0  0  0  0  0  0  0
   -5.7287    0.6583    0.0007 O   0  0  0  0  0  0  0  0  0  0  0  0
    0.2478   -3.1990   -0.0002 O   0  0  0  0  0  0  0  0  0  0  0  0
    0.7057    1.3964   -0.0003 O   0  0  0  0  0  0  0  0  0  0  0  0
   -1.6776   -1.9204    0.0003 O   0  0  0  0  0  0  0  0  0  0  0  0
    5.2238   -1.1620    0.0003 H   0  0  0  0  0  0  0  0  0  0  0  0
   -4.1352    2.7604   -0.0001 H   0  0  0  0  0  0  0  0  0  0  0  0
    3.0686   -2.3745    0.0001 H   0  0  0  0  0  0  0  0  0  0  0  0
   -1.6768    2.7035   -0.0006 H   0  0  0  0  0  0  0  0  0  0  0  0
    3.1643    2.6402    0.0000 H   0  0  0  0  0  0  0  0  0  0  0  0
   -4.2867   -1.5502    0.0006 H   0  0  0  0  0  0  0  0  0  0  0  0
    5.3818    2.4009    0.0004 H   0  0  0  0  0  0  0  0  0  0  0  0
   -6.0100    1.5894    0.0006 H   0  0  0  0  0  0  0  0  0  0  0  0
  1  7  2  0
  1 21  1  0
  2  8  2  0
  2 22  1  0
  3  1  1  0
  3 23  1  0
  4  2  1  0
  4 24  1  0
  5  7  1  0
  5 25  1  0
  6  8  1  0
  6 26  1  0
  9  3  2  0
  9 11  1  0
 10  4  2  0
 10 12  1  0
 11  5  2  0
 12  6  2  0
 13  9  1  0
 13 14  2  0
 13 15  1  0
 14 10  1  0
 16  7  1  0
 16 27  1  0
 17  8  1  0
 17 28  1  0
 18 15  2  0
 19 11  1  0
 19 14  1  0
 20 12  1  0
 20 15  1  0
M  END
