71308479
     RDKit          3D

 82 82  0  0  1  0  0  0  0  0999 V2000
    0.4725    1.0378  -13.6382 C   0  0  0  0  0  0  0  0  0  0  0  0
    0.7535   -2.5415   -8.6861 C   0  0  0  0  0  0  0  0  0  0  0  0
    6.4707    1.0006   -2.6598 C   0  0  0  0  0  0  0  0  0  0  0  0
    1.6264    3.9423   -7.7266 C   0  0  0  0  0  0  0  0  0  0  0  0
    5.4490   -3.3732   -0.3645 C   0  0  0  0  0  0  0  0  0  0  0  0
   -1.4122    0.6545   -2.9763 C   0  0  0  0  0  0  0  0  0  0  0  0
    1.2495    0.3926  -12.5296 C   0  0  0  0  0  0  0  0  0  0  0  0
    0.3544   -1.9087  -10.0187 C   0  0  1  0  0  0  0  0  0  0  0  0
    5.4715    0.2326   -1.8173 C   0  0  1  0  0  0  0  0  0  0  0  0
    1.0560    2.5161   -7.6764 C   0  0  2  0  0  0  0  0  0  0  0  0
    4.2046   -2.4906   -0.4828 C   0  0  2  0  0  0  0  0  0  0  0  0
   -0.0794    0.1875   -3.5831 C   0  0  2  0  0  0  0  0  0  0  0  0
    1.0124   -0.5178  -10.2130 C   0  0  2  0  0  0  0  0  0  0  0  0
    5.0943   -1.0660   -2.5406 C   0  0  2  0  0  0  0  0  0  0  0  0
    1.3592    1.7487   -8.9869 C   0  0  2  0  0  0  0  0  0  0  0  0
   -0.3156   -0.9788   -4.5249 C   0  0  1  0  0  0  0  0  0  0  0  0
    1.9527   -1.8149   -4.0824 C   0  0  2  0  0  0  0  0  0  0  0  0
    3.9476   -1.8848   -1.8852 C   0  0  2  0  0  0  0  0  0  0  0  0
    0.7204    0.3413   -8.9737 C   0  0  2  0  0  0  0  0  0  0  0  0
    1.0330   -1.2877   -5.1876 C   0  0  1  0  0  0  0  0  0  0  0  0
    2.0859   -0.7098   -2.9796 C   0  0  1  0  0  0  0  0  0  0  0  0
   -1.1348   -1.4322   -7.3761 C   0  0  0  0  0  0  0  0  0  0  0  0
    0.4463   -1.5944   -7.5309 C   0  0  2  0  0  0  0  0  0  0  0  0
    0.4789    0.1099  -11.4224 N   0  0  0  0  0  0  0  0  0  0  0  0
    6.1521    1.9219   -3.4103 O   0  0  0  0  0  0  0  0  0  0  0  0
    1.3054    4.6301   -6.5144 O   0  0  0  0  0  0  0  0  0  0  0  0
    5.4565   -3.9299    0.9565 O   0  0  0  0  0  0  0  0  0  0  0  0
   -1.9534   -0.3128   -2.0770 O   0  0  0  0  0  0  0  0  0  0  0  0
    2.4533    0.1622  -12.6048 O   0  0  0  0  0  0  0  0  0  0  0  0
    0.6905   -2.7910  -11.0938 O   0  0  0  0  0  0  0  0  0  0  0  0
    6.0885   -0.0257   -0.5631 O   0  0  0  0  0  0  0  0  0  0  0  0
   -0.3548    2.6378   -7.4156 O   0  0  0  0  0  0  0  0  0  0  0  0
    4.2700   -1.4792    0.5538 O   0  0  0  0  0  0  0  0  0  0  0  0
    6.2346   -1.9132   -2.7456 O   0  0  0  0  0  0  0  0  0  0  0  0
    2.7755    1.6549   -9.1714 O   0  0  0  0  0  0  0  0  0  0  0  0
   -0.8105   -2.1444   -3.8307 O   0  0  0  0  0  0  0  0  0  0  0  0
    3.2458   -2.1376   -4.6322 O   0  0  0  0  0  0  0  0  0  0  0  0
   -1.7801   -2.4946   -7.1726 O   0  0  0  0  0  0  0  0  0  0  0  0
   -1.5539   -0.2215   -7.3342 O   0  0  0  0  0  0  0  0  0  0  0  0
    0.8355   -0.1531   -2.5267 O   0  0  0  0  0  0  0  0  0  0  0  0
    2.7279   -1.1327   -1.7674 O   0  0  0  0  0  0  0  0  0  0  0  0
    1.1270   -0.3365   -7.7730 O   0  0  0  0  0  0  0  0  0  0  0  0
    0.9924   -2.1873   -6.2953 O   0  0  0  0  0  0  0  0  0  0  0  0
    1.1521    1.3132  -14.4495 H   0  0  0  0  0  0  0  0  0  0  0  0
   -0.0200    1.9442  -13.2716 H   0  0  0  0  0  0  0  0  0  0  0  0
   -0.2764    0.3390  -14.0204 H   0  0  0  0  0  0  0  0  0  0  0  0
    1.8277   -2.7740   -8.7093 H   0  0  0  0  0  0  0  0  0  0  0  0
    0.2589   -3.5124   -8.5590 H   0  0  0  0  0  0  0  0  0  0  0  0
    7.5155    0.6467   -2.6100 H   0  0  0  0  0  0  0  0  0  0  0  0
    2.7136    3.9465   -7.8418 H   0  0  0  0  0  0  0  0  0  0  0  0
    1.1825    4.5138   -8.5491 H   0  0  0  0  0  0  0  0  0  0  0  0
    5.4702   -4.1786   -1.1045 H   0  0  0  0  0  0  0  0  0  0  0  0
    6.3663   -2.7857   -0.4336 H   0  0  0  0  0  0  0  0  0  0  0  0
   -1.2594    1.5709   -2.4040 H   0  0  0  0  0  0  0  0  0  0  0  0
   -2.1506    0.8625   -3.7669 H   0  0  0  0  0  0  0  0  0  0  0  0
   -0.7383   -1.8016  -10.0525 H   0  0  0  0  0  0  0  0  0  0  0  0
    4.5989    0.8775   -1.6630 H   0  0  0  0  0  0  0  0  0  0  0  0
    1.5012    2.0112   -6.8109 H   0  0  0  0  0  0  0  0  0  0  0  0
    3.3271   -3.0939   -0.2136 H   0  0  0  0  0  0  0  0  0  0  0  0
    0.3418    1.0313   -4.1430 H   0  0  0  0  0  0  0  0  0  0  0  0
    2.0935   -0.6598  -10.3231 H   0  0  0  0  0  0  0  0  0  0  0  0
    4.7773   -0.7608   -3.5424 H   0  0  0  0  0  0  0  0  0  0  0  0
    0.9403    2.3029   -9.8367 H   0  0  0  0  0  0  0  0  0  0  0  0
   -1.0928   -0.7022   -5.2054 H   0  0  0  0  0  0  0  0  0  0  0  0
    1.5709   -2.7465   -3.6446 H   0  0  0  0  0  0  0  0  0  0  0  0
    3.7661   -2.7740   -2.4980 H   0  0  0  0  0  0  0  0  0  0  0  0
   -0.3547    0.5229   -8.9762 H   0  0  0  0  0  0  0  0  0  0  0  0
    1.4963   -0.3557   -5.5506 H   0  0  0  0  0  0  0  0  0  0  0  0
    2.6761    0.1210   -3.3834 H   0  0  0  0  0  0  0  0  0  0  0  0
   -0.5298    0.1979  -11.5035 H   0  0  0  0  0  0  0  0  0  0  0  0
    0.3546    4.4407   -6.3800 H   0  0  0  0  0  0  0  0  0  0  0  0
    4.9639   -4.7700    0.9131 H   0  0  0  0  0  0  0  0  0  0  0  0
   -1.9196   -1.1666   -2.5707 H   0  0  0  0  0  0  0  0  0  0  0  0
    1.6026   -2.5953  -11.3622 H   0  0  0  0  0  0  0  0  0  0  0  0
    5.3641   -0.3241    0.0322 H   0  0  0  0  0  0  0  0  0  0  0  0
   -0.7345    1.7298   -7.3235 H   0  0  0  0  0  0  0  0  0  0  0  0
    4.5757   -1.9889    1.3390 H   0  0  0  0  0  0  0  0  0  0  0  0
    6.9230   -1.6674   -2.1035 H   0  0  0  0  0  0  0  0  0  0  0  0
    3.0535    2.3991   -9.7330 H   0  0  0  0  0  0  0  0  0  0  0  0
   -0.9663   -2.8126   -4.5387 H   0  0  0  0  0  0  0  0  0  0  0  0
    3.2608   -1.8508   -5.5642 H   0  0  0  0  0  0  0  0  0  0  0  0
    0.5187    1.0666    0.9474 Na  0  0  0  0  0 15  0  0  0  0  0  0
  1 44  1  0
  1 45  1  0
  1 46  1  0
  2 47  1  0
  2 48  1  0
  3 49  1  0
  4 50  1  0
  4 51  1  0
  5 52  1  0
  5 53  1  0
  6 54  1  0
  6 55  1  0
  7  1  1  0
  8  2  1  0
  8 13  1  0
  8 30  1  0
  8 56  1  1
  9  3  1  0
  9 31  1  0
  9 57  1  1
 10  4  1  0
 10 32  1  0
 10 58  1  1
 11  5  1  0
 11 18  1  0
 11 33  1  0
 11 59  1  1
 12  6  1  0
 12 60  1  6
 13 19  1  0
 13 24  1  0
 13 61  1  6
 14  9  1  0
 14 18  1  0
 14 34  1  0
 14 62  1  6
 15 10  1  0
 15 35  1  0
 15 63  1  6
 16 12  1  0
 16 36  1  0
 16 64  1  6
 17 20  1  0
 17 37  1  0
 17 65  1  1
 18 41  1  0
 18 66  1  6
 19 15  1  0
 19 67  1  1
 20 16  1  0
 20 43  1  0
 20 68  1  6
 21 17  1  0
 21 41  1  0
 21 69  1  6
 23  2  1  0
 23 22  1  0
 23 43  1  1
 24  7  1  0
 24 70  1  0
 25  3  2  0
 26  4  1  0
 26 71  1  0
 27  5  1  0
 27 72  1  0
 28  6  1  0
 28 73  1  0
 29  7  2  0
 30 74  1  0
 31 75  1  0
 32 76  1  0
 33 77  1  0
 34 78  1  0
 35 79  1  0
 36 80  1  0
 37 81  1  0
 38 22  1  0
 39 22  2  0
 40 12  1  0
 40 21  1  0
 42 19  1  0
 42 23  1  0
M  CHG  2  38  -1  82   1
M  END
