10394
     RDKit          3D

 22 22  0  0  0  0  0  0  0  0999 V2000
    1.0428    1.2018   -0.3013 C   0  0  0  0  0  0  0  0  0  0  0  0
    1.0316   -1.2125   -0.2111 C   0  0  0  0  0  0  0  0  0  0  0  0
   -1.1019   -0.0131   -0.7184 C   0  0  0  0  0  0  0  0  0  0  0  0
    2.4063    1.2064   -0.0073 C   0  0  0  0  0  0  0  0  0  0  0  0
    2.3952   -1.2078    0.0831 C   0  0  0  0  0  0  0  0  0  0  0  0
   -2.0020    0.0369    0.5221 C   0  0  0  0  0  0  0  0  0  0  0  0
    0.3555   -0.0077   -0.4032 C   0  0  0  0  0  0  0  0  0  0  0  0
    3.0825    0.0016    0.1849 C   0  0  0  0  0  0  0  0  0  0  0  0
   -3.4647   -0.0066    0.1512 C   0  0  0  0  0  0  0  0  0  0  0  0
    4.4128    0.0071    0.4728 O   0  0  0  0  0  0  0  0  0  0  0  0
   -4.2845    0.0785    1.2276 O   0  0  0  0  0  0  0  0  0  0  0  0
   -3.8736   -0.0845   -1.0003 O   0  0  0  0  0  0  0  0  0  0  0  0
    0.5269    2.1471   -0.4469 H   0  0  0  0  0  0  0  0  0  0  0  0
    0.5071   -2.1615   -0.2858 H   0  0  0  0  0  0  0  0  0  0  0  0
   -1.3365    0.8333   -1.3785 H   0  0  0  0  0  0  0  0  0  0  0  0
   -1.3406   -0.9055   -1.3131 H   0  0  0  0  0  0  0  0  0  0  0  0
    2.9301    2.1554    0.0699 H   0  0  0  0  0  0  0  0  0  0  0  0
    2.9163   -2.1495    0.2324 H   0  0  0  0  0  0  0  0  0  0  0  0
   -1.7909   -0.8176    1.1751 H   0  0  0  0  0  0  0  0  0  0  0  0
   -1.8164    0.9607    1.0816 H   0  0  0  0  0  0  0  0  0  0  0  0
    4.7245    0.9278    0.5047 H   0  0  0  0  0  0  0  0  0  0  0  0
   -5.2308    0.0620    0.9697 H   0  0  0  0  0  0  0  0  0  0  0  0
  1  4  2  0
  1 13  1  0
  2  5  1  0
  2 14  1  0
  3  6  1  0
  3  7  1  0
  3 15  1  0
  3 16  1  0
  4  8  1  0
  4 17  1  0
  5  8  2  0
  5 18  1  0
  6  9  1  0
  6 19  1  0
  6 20  1  0
  7  1  1  0
  7  2  2  0
 10  8  1  0
 10 21  1  0
 11  9  1  0
 11 22  1  0
 12  9  2  0
M  END
