71472684
     RDKit          3D

 65 67  0  0  1  0  0  0  0  0999 V2000
    5.2282   -3.1215    1.2013 C   0  0  0  0  0  0  0  0  0  0  0  0
   -0.5588    3.2748    1.5759 C   0  0  0  0  0  0  0  0  0  0  0  0
   -3.4288   -2.6166    1.0466 C   0  0  0  0  0  0  0  0  0  0  0  0
    5.1560   -1.6178    0.9625 C   0  0  0  0  0  0  0  0  0  0  0  0
   -0.2015    1.8365    1.2200 C   0  0  0  0  0  0  0  0  0  0  0  0
   -4.1698   -1.6683    0.1078 C   0  0  0  0  0  0  0  0  0  0  0  0
    6.3811   -1.0871    0.2107 C   0  0  0  0  0  0  0  0  0  0  0  0
    1.1244    1.7365    0.4577 C   0  0  0  0  0  0  0  0  0  0  0  0
    6.2123    0.4069   -0.0675 C   0  0  0  0  0  0  0  0  0  0  0  0
   -4.2808    0.6666   -0.8564 C   0  0  0  0  0  0  0  0  0  0  0  0
   -5.7092    0.7338   -0.3196 C   0  0  0  0  0  0  0  0  0  0  0  0
    4.8781    0.6882   -0.7609 C   0  0  0  0  0  0  0  0  0  0  0  0
    0.1839   -0.3048   -0.6832 C   0  0  0  0  0  0  0  0  0  0  0  0
   -3.4459   -0.3234   -0.0418 C   0  0  0  0  0  0  0  0  0  0  0  0
    1.3835    0.2832    0.0593 C   0  0  0  0  0  0  0  0  0  0  0  0
   -6.3199   -0.6598   -0.1629 C   0  0  0  0  0  0  0  0  0  0  0  0
    3.7241    0.0288   -0.0009 C   0  0  0  0  0  0  0  0  0  0  0  0
   -1.1087   -0.0653    0.1003 C   0  0  0  0  0  0  0  0  0  0  0  0
   -1.5059    3.2582    2.6291 O   0  0  0  0  0  0  0  0  0  0  0  0
   -4.1632   -3.8234    1.1386 O   0  0  0  0  0  0  0  0  0  0  0  0
    6.5099   -1.7940   -1.0250 O   0  0  0  0  0  0  0  0  0  0  0  0
    1.0492    2.5490   -0.7155 O   0  0  0  0  0  0  0  0  0  0  0  0
    7.2969    0.8513   -0.8774 O   0  0  0  0  0  0  0  0  0  0  0  0
   -3.6787    1.9584   -0.7456 O   0  0  0  0  0  0  0  0  0  0  0  0
   -6.5048    1.5260   -1.1941 O   0  0  0  0  0  0  0  0  0  0  0  0
    4.6458    2.0962   -0.7907 O   0  0  0  0  0  0  0  0  0  0  0  0
    0.3683   -1.7124   -0.8333 O   0  0  0  0  0  0  0  0  0  0  0  0
   -6.6235   -1.2689   -1.4165 O   0  0  0  0  0  0  0  0  0  0  0  0
    3.9700   -1.3620    0.2000 O   0  0  0  0  0  0  0  0  0  0  0  0
   -5.4823   -1.4838    0.6504 O   0  0  0  0  0  0  0  0  0  0  0  0
   -1.2671    1.3174    0.4145 O   0  0  0  0  0  0  0  0  0  0  0  0
   -2.1992   -0.5037   -0.7095 O   0  0  0  0  0  0  0  0  0  0  0  0
    2.5365    0.2009   -0.7739 O   0  0  0  0  0  0  0  0  0  0  0  0
    4.3739   -3.4443    1.8071 H   0  0  0  0  0  0  0  0  0  0  0  0
    5.1658   -3.6856    0.2647 H   0  0  0  0  0  0  0  0  0  0  0  0
    6.1471   -3.3985    1.7264 H   0  0  0  0  0  0  0  0  0  0  0  0
   -1.0028    3.8051    0.7271 H   0  0  0  0  0  0  0  0  0  0  0  0
    0.3197    3.8216    1.9325 H   0  0  0  0  0  0  0  0  0  0  0  0
   -3.3557   -2.1917    2.0532 H   0  0  0  0  0  0  0  0  0  0  0  0
   -2.4253   -2.8445    0.6752 H   0  0  0  0  0  0  0  0  0  0  0  0
    5.0652   -1.1159    1.9343 H   0  0  0  0  0  0  0  0  0  0  0  0
   -0.1493    1.2397    2.1404 H   0  0  0  0  0  0  0  0  0  0  0  0
   -4.2619   -2.1663   -0.8666 H   0  0  0  0  0  0  0  0  0  0  0  0
    7.3025   -1.2574    0.7795 H   0  0  0  0  0  0  0  0  0  0  0  0
    1.9538    2.1199    1.0618 H   0  0  0  0  0  0  0  0  0  0  0  0
    6.2637    0.9709    0.8723 H   0  0  0  0  0  0  0  0  0  0  0  0
   -4.2706    0.4114   -1.9224 H   0  0  0  0  0  0  0  0  0  0  0  0
   -5.6941    1.2365    0.6560 H   0  0  0  0  0  0  0  0  0  0  0  0
    4.9060    0.3500   -1.8032 H   0  0  0  0  0  0  0  0  0  0  0  0
    0.1119    0.1137   -1.6938 H   0  0  0  0  0  0  0  0  0  0  0  0
   -3.3082    0.0955    0.9663 H   0  0  0  0  0  0  0  0  0  0  0  0
    1.5402   -0.3229    0.9638 H   0  0  0  0  0  0  0  0  0  0  0  0
   -7.2759   -0.5523    0.3629 H   0  0  0  0  0  0  0  0  0  0  0  0
    3.6140    0.5187    0.9766 H   0  0  0  0  0  0  0  0  0  0  0  0
   -1.1077   -0.6568    1.0260 H   0  0  0  0  0  0  0  0  0  0  0  0
   -1.7163    4.1836    2.8409 H   0  0  0  0  0  0  0  0  0  0  0  0
   -3.6765   -4.4104    1.7420 H   0  0  0  0  0  0  0  0  0  0  0  0
    6.8515   -2.6815   -0.8240 H   0  0  0  0  0  0  0  0  0  0  0  0
    1.0645    3.4793   -0.4346 H   0  0  0  0  0  0  0  0  0  0  0  0
    8.1202    0.6593   -0.3969 H   0  0  0  0  0  0  0  0  0  0  0  0
   -3.6659    2.2080    0.1942 H   0  0  0  0  0  0  0  0  0  0  0  0
   -7.4056    1.5510   -0.8286 H   0  0  0  0  0  0  0  0  0  0  0  0
    4.6183    2.4177    0.1266 H   0  0  0  0  0  0  0  0  0  0  0  0
    0.4282   -2.1060    0.0539 H   0  0  0  0  0  0  0  0  0  0  0  0
   -7.3641   -1.8807   -1.2668 H   0  0  0  0  0  0  0  0  0  0  0  0
  1 34  1  0
  1 35  1  0
  1 36  1  0
  2 37  1  0
  2 38  1  0
  3 39  1  0
  3 40  1  0
  4  1  1  0
  4 41  1  0
  5  2  1  0
  5 42  1  0
  6  3  1  0
  6 43  1  0
  7  4  1  0
  7 44  1  0
  8  5  1  0
  8 45  1  0
  9  7  1  0
  9 46  1  0
 10 11  1  0
 10 47  1  0
 11 16  1  0
 11 48  1  0
 12  9  1  0
 12 49  1  0
 13 18  1  0
 13 50  1  0
 14  6  1  0
 14 10  1  0
 14 51  1  0
 15  8  1  0
 15 13  1  0
 15 52  1  0
 16 53  1  0
 17 12  1  0
 17 54  1  0
 18 55  1  0
 19  2  1  0
 19 56  1  0
 20  3  1  0
 20 57  1  0
 21  7  1  0
 21 58  1  0
 22  8  1  0
 22 59  1  0
 23  9  1  0
 23 60  1  0
 24 10  1  0
 24 61  1  0
 25 11  1  0
 25 62  1  0
 26 12  1  0
 26 63  1  0
 27 13  1  0
 27 64  1  0
 28 16  1  0
 28 65  1  0
 29  4  1  0
 29 17  1  0
 30  6  1  0
 30 16  1  0
 31  5  1  0
 31 18  1  0
 32 14  1  0
 32 18  1  0
 33 15  1  0
 33 17  1  0
M  END
