10154
     RDKit          3D

 45 48  0  0  1  0  0  0  0  0999 V2000
   -2.8471   -3.7681   -0.0530 C   0  0  0  0  0  0  0  0  0  0  0  0
    5.1573    1.0942   -0.2051 C   0  0  0  0  0  0  0  0  0  0  0  0
    0.9502    3.2016   -1.2998 C   0  0  0  0  0  0  0  0  0  0  0  0
   -4.1809   -0.2720    0.0585 C   0  0  0  0  0  0  0  0  0  0  0  0
   -3.9916   -1.7314    0.4620 C   0  0  0  0  0  0  0  0  0  0  0  0
   -0.3979   -2.1469   -0.7080 C   0  0  0  0  0  0  0  0  0  0  0  0
   -2.9530    1.9109    0.1081 C   0  0  0  0  0  0  0  0  0  0  0  0
    2.1016   -2.1544   -0.3685 C   0  0  0  0  0  0  0  0  0  0  0  0
    2.0650    0.4954    0.4803 C   0  0  0  0  0  0  0  0  0  0  0  0
   -2.9006    0.5138    0.1151 C   0  0  0  0  0  0  0  0  0  0  0  0
    0.8852   -1.4578   -0.3003 C   0  0  0  0  0  0  0  0  0  0  0  0
    0.8502   -0.1064    0.1058 C   0  0  0  0  0  0  0  0  0  0  0  0
   -1.5911   -1.6726    0.1524 C   0  0  0  0  0  0  0  0  0  0  0  0
    3.2903   -1.5310   -0.0031 C   0  0  0  0  0  0  0  0  0  0  0  0
   -1.7789    2.6537    0.1122 C   0  0  0  0  0  0  0  0  0  0  0  0
    3.2712   -0.2092    0.4266 C   0  0  0  0  0  0  0  0  0  0  0  0
   -1.6540   -0.1422    0.1067 C   0  0  0  0  0  0  0  0  0  0  0  0
   -0.4485    0.6051    0.1216 C   0  0  0  0  0  0  0  0  0  0  0  0
   -0.5417    2.0086    0.1168 C   0  0  0  0  0  0  0  0  0  0  0  0
   -2.8601   -2.3180   -0.2740 N   0  0  0  0  0  0  0  0  0  0  0  0
    4.4600   -2.2252   -0.0651 O   0  0  0  0  0  0  0  0  0  0  0  0
   -1.8576    4.0147    0.0886 O   0  0  0  0  0  0  0  0  0  0  0  0
    4.4242    0.4095    0.8081 O   0  0  0  0  0  0  0  0  0  0  0  0
    0.5478    2.8277    0.0141 O   0  0  0  0  0  0  0  0  0  0  0  0
   -2.1216   -4.2659   -0.7027 H   0  0  0  0  0  0  0  0  0  0  0  0
   -2.6244   -4.0258    0.9886 H   0  0  0  0  0  0  0  0  0  0  0  0
   -3.8183   -4.2061   -0.3121 H   0  0  0  0  0  0  0  0  0  0  0  0
    6.0656    1.5029    0.2460 H   0  0  0  0  0  0  0  0  0  0  0  0
    4.5655    1.9211   -0.6106 H   0  0  0  0  0  0  0  0  0  0  0  0
    5.4438    0.4091   -1.0093 H   0  0  0  0  0  0  0  0  0  0  0  0
    1.9107    3.7198   -1.2283 H   0  0  0  0  0  0  0  0  0  0  0  0
    0.2207    3.8842   -1.7462 H   0  0  0  0  0  0  0  0  0  0  0  0
    1.0771    2.3227   -1.9402 H   0  0  0  0  0  0  0  0  0  0  0  0
   -4.5694   -0.2207   -0.9667 H   0  0  0  0  0  0  0  0  0  0  0  0
   -4.9274    0.1824    0.7210 H   0  0  0  0  0  0  0  0  0  0  0  0
   -3.8357   -1.8120    1.5465 H   0  0  0  0  0  0  0  0  0  0  0  0
   -4.9225   -2.2642    0.2299 H   0  0  0  0  0  0  0  0  0  0  0  0
   -0.5762   -1.9414   -1.7720 H   0  0  0  0  0  0  0  0  0  0  0  0
   -0.2580   -3.2276   -0.5972 H   0  0  0  0  0  0  0  0  0  0  0  0
   -3.9179    2.4124    0.0920 H   0  0  0  0  0  0  0  0  0  0  0  0
    2.1189   -3.1891   -0.7030 H   0  0  0  0  0  0  0  0  0  0  0  0
    2.1145    1.5005    0.8843 H   0  0  0  0  0  0  0  0  0  0  0  0
   -1.3952   -1.9343    1.2039 H   0  0  0  0  0  0  0  0  0  0  0  0
    5.1759   -1.6563    0.2663 H   0  0  0  0  0  0  0  0  0  0  0  0
   -2.7932    4.2803    0.0825 H   0  0  0  0  0  0  0  0  0  0  0  0
  1 25  1  0
  1 26  1  0
  1 27  1  0
  2 28  1  0
  2 29  1  0
  2 30  1  0
  3 31  1  0
  3 32  1  0
  3 33  1  0
  4 34  1  0
  4 35  1  0
  5  4  1  0
  5 36  1  0
  5 37  1  0
  6 11  1  0
  6 38  1  0
  6 39  1  0
  7 15  1  0
  7 40  1  0
  8 14  2  0
  8 41  1  0
  9 16  2  0
  9 42  1  0
 10  4  1  0
 10  7  2  0
 11  8  1  0
 11 12  2  0
 12  9  1  0
 13  6  1  0
 13 17  1  0
 13 43  1  0
 16 14  1  0
 17 10  1  0
 17 18  2  0
 18 12  1  0
 18 19  1  0
 19 15  2  0
 20  1  1  0
 20  5  1  0
 20 13  1  0
 21 14  1  0
 21 44  1  0
 22 15  1  0
 22 45  1  0
 23  2  1  0
 23 16  1  0
 24  3  1  0
 24 19  1  0
M  END
