5281612
     RDKit          3D

 34 36  0  0  0  0  0  0  0  0999 V2000
    6.3478    0.6020   -1.1300 C   0  0  0  0  0  0  0  0  0  0  0  0
    2.4325   -1.4171   -0.4569 C   0  0  0  0  0  0  0  0  0  0  0  0
    3.8202   -1.2760   -0.4641 C   0  0  0  0  0  0  0  0  0  0  0  0
    2.2159    0.7641    0.5591 C   0  0  0  0  0  0  0  0  0  0  0  0
   -4.6914    0.6808   -0.1131 C   0  0  0  0  0  0  0  0  0  0  0  0
   -2.5686    1.8359   -0.2054 C   0  0  0  0  0  0  0  0  0  0  0  0
   -0.4306   -1.7495    0.1675 C   0  0  0  0  0  0  0  0  0  0  0  0
    1.6260   -0.3975    0.0548 C   0  0  0  0  0  0  0  0  0  0  0  0
   -3.9633    1.8665   -0.2221 C   0  0  0  0  0  0  0  0  0  0  0  0
    3.6035    0.9053    0.5521 C   0  0  0  0  0  0  0  0  0  0  0  0
   -4.0283   -0.5406    0.0130 C   0  0  0  0  0  0  0  0  0  0  0  0
   -1.9049   -1.8387    0.1597 C   0  0  0  0  0  0  0  0  0  0  0  0
    4.4057   -0.1147    0.0405 C   0  0  0  0  0  0  0  0  0  0  0  0
    0.1569   -0.5470    0.0621 C   0  0  0  0  0  0  0  0  0  0  0  0
   -1.9032    0.6163   -0.0790 C   0  0  0  0  0  0  0  0  0  0  0  0
   -2.6320   -0.5668    0.0295 C   0  0  0  0  0  0  0  0  0  0  0  0
   -4.6154    3.0552   -0.3457 O   0  0  0  0  0  0  0  0  0  0  0  0
    4.1637    2.0440    1.0474 O   0  0  0  0  0  0  0  0  0  0  0  0
   -4.7848   -1.6685    0.1154 O   0  0  0  0  0  0  0  0  0  0  0  0
   -2.4798   -2.9141    0.2560 O   0  0  0  0  0  0  0  0  0  0  0  0
    5.7620    0.0110    0.0283 O   0  0  0  0  0  0  0  0  0  0  0  0
   -0.5318    0.6494   -0.0692 O   0  0  0  0  0  0  0  0  0  0  0  0
    7.4276    0.6680   -0.9718 H   0  0  0  0  0  0  0  0  0  0  0  0
    5.9556    1.6109   -1.2927 H   0  0  0  0  0  0  0  0  0  0  0  0
    6.1606   -0.0197   -2.0112 H   0  0  0  0  0  0  0  0  0  0  0  0
    2.0146   -2.3273   -0.8789 H   0  0  0  0  0  0  0  0  0  0  0  0
    4.4392   -2.0727   -0.8679 H   0  0  0  0  0  0  0  0  0  0  0  0
    1.6093    1.5682    0.9702 H   0  0  0  0  0  0  0  0  0  0  0  0
   -5.7786    0.7034   -0.1263 H   0  0  0  0  0  0  0  0  0  0  0  0
   -2.0038    2.7608   -0.2906 H   0  0  0  0  0  0  0  0  0  0  0  0
    0.1096   -2.6819    0.2824 H   0  0  0  0  0  0  0  0  0  0  0  0
   -5.5741    2.8914   -0.3391 H   0  0  0  0  0  0  0  0  0  0  0  0
    5.1314    1.9577    1.0019 H   0  0  0  0  0  0  0  0  0  0  0  0
   -4.2190   -2.4511    0.2001 H   0  0  0  0  0  0  0  0  0  0  0  0
  1 23  1  0
  1 24  1  0
  1 25  1  0
  2  3  2  0
  2 26  1  0
  3 27  1  0
  4 10  1  0
  4 28  1  0
  5 29  1  0
  6  9  1  0
  6 30  1  0
  7 31  1  0
  8  2  1  0
  8  4  2  0
  9  5  2  0
 10 13  2  0
 11  5  1  0
 12  7  1  0
 13  3  1  0
 14  7  2  0
 14  8  1  0
 15  6  2  0
 16 11  2  0
 16 12  1  0
 16 15  1  0
 17  9  1  0
 17 32  1  0
 18 10  1  0
 18 33  1  0
 19 11  1  0
 19 34  1  0
 20 12  2  0
 21  1  1  0
 21 13  1  0
 22 14  1  0
 22 15  1  0
M  END
