8815
     RDKit          3D

 23 23  0  0  0  0  0  0  0  0999 V2000
    4.0557    0.9986    0.6206 C   0  0  0  0  0  0  0  0  0  0  0  0
   -3.8124    1.0787    0.1960 C   0  0  0  0  0  0  0  0  0  0  0  0
    3.2258   -0.0449    0.5108 C   0  0  0  0  0  0  0  0  0  0  0  0
    2.3838   -0.3334   -0.7050 C   0  0  0  0  0  0  0  0  0  0  0  0
    0.2531   -1.4508   -0.0267 C   0  0  0  0  0  0  0  0  0  0  0  0
    0.2173    0.9051   -0.5609 C   0  0  0  0  0  0  0  0  0  0  0  0
   -1.1164   -1.4122    0.2351 C   0  0  0  0  0  0  0  0  0  0  0  0
   -1.1523    0.9439   -0.2989 C   0  0  0  0  0  0  0  0  0  0  0  0
    0.9199   -0.2921   -0.4248 C   0  0  0  0  0  0  0  0  0  0  0  0
   -1.8192   -0.2150    0.0992 C   0  0  0  0  0  0  0  0  0  0  0  0
   -3.1554   -0.1779    0.3546 O   0  0  0  0  0  0  0  0  0  0  0  0
    4.6400    1.1435    1.5226 H   0  0  0  0  0  0  0  0  0  0  0  0
    4.1656    1.7218   -0.1798 H   0  0  0  0  0  0  0  0  0  0  0  0
   -4.8686    0.9243    0.4402 H   0  0  0  0  0  0  0  0  0  0  0  0
   -3.7717    1.4259   -0.8420 H   0  0  0  0  0  0  0  0  0  0  0  0
   -3.4276    1.8255    0.8989 H   0  0  0  0  0  0  0  0  0  0  0  0
    3.1598   -0.7438    1.3413 H   0  0  0  0  0  0  0  0  0  0  0  0
    2.6223    0.3657   -1.5176 H   0  0  0  0  0  0  0  0  0  0  0  0
    2.6609   -1.3231   -1.0911 H   0  0  0  0  0  0  0  0  0  0  0  0
    0.7888   -2.3898    0.0846 H   0  0  0  0  0  0  0  0  0  0  0  0
    0.7263    1.8147   -0.8692 H   0  0  0  0  0  0  0  0  0  0  0  0
   -1.6304   -2.3179    0.5451 H   0  0  0  0  0  0  0  0  0  0  0  0
   -1.6364    1.9064   -0.4239 H   0  0  0  0  0  0  0  0  0  0  0  0
  1 12  1  0
  1 13  1  0
  2 14  1  0
  2 15  1  0
  2 16  1  0
  3  1  2  0
  3 17  1  0
  4  3  1  0
  4 18  1  0
  4 19  1  0
  5  7  2  0
  5 20  1  0
  6  8  1  0
  6 21  1  0
  7 22  1  0
  8 23  1  0
  9  4  1  0
  9  5  1  0
  9  6  2  0
 10  7  1  0
 10  8  2  0
 11  2  1  0
 11 10  1  0
M  END
