5351501
     RDKit          3D

 60 63  0  0  1  0  0  0  0  0999 V2000
    1.5006   -6.6181   -0.5846 C   0  0  0  0  0  0  0  0  0  0  0  0
    1.6179   -1.0810   -2.5518 C   0  0  0  0  0  0  0  0  0  0  0  0
   -1.7458   -7.8156   -2.0377 C   0  0  0  0  0  0  0  0  0  0  0  0
   -3.1739    1.4163    0.3818 C   0  0  0  0  0  0  0  0  0  0  0  0
   -3.6427    0.0699   -0.1611 C   0  0  0  0  0  0  0  0  0  0  0  0
    0.7570   -5.5934   -3.5372 C   0  0  0  0  0  0  0  0  0  0  0  0
    1.0461   -7.0099   -3.0499 C   0  0  0  0  0  0  0  0  0  0  0  0
   -1.7639    1.7327   -0.0976 C   0  0  0  0  0  0  0  0  0  0  0  0
   -0.6998   -5.2102   -3.2975 C   0  0  0  0  0  0  0  0  0  0  0  0
   -2.6547   -1.0634    0.1404 C   0  0  0  0  0  0  0  0  0  0  0  0
   -0.7956   -4.3685   -0.7946 C   0  0  0  0  0  0  0  0  0  0  0  0
   -0.4787   -3.0797   -1.0421 C   0  0  0  0  0  0  0  0  0  0  0  0
    0.6305    0.9952    0.0051 C   0  0  0  0  0  0  0  0  0  0  0  0
    0.5573   -7.2470   -1.6125 C   0  0  0  0  0  0  0  0  0  0  0  0
    2.1601   -1.5880   -1.2214 C   0  0  0  0  0  0  0  0  0  0  0  0
   -0.8038    0.6105    0.3259 C   0  0  0  0  0  0  0  0  0  0  0  0
   -1.1640   -5.4468   -1.8387 C   0  0  0  0  0  0  0  0  0  0  0  0
   -1.2156   -0.7325   -0.3303 C   0  0  0  0  0  0  0  0  0  0  0  0
   -0.2303   -1.9221   -0.0522 C   0  0  0  0  0  0  0  0  0  0  0  0
    1.5635   -0.0836    0.5239 C   0  0  0  0  0  0  0  0  0  0  0  0
    1.2661   -1.4969    0.0130 C   0  0  0  0  0  0  0  0  0  0  0  0
    2.9657    0.1638    0.0288 C   0  0  0  0  0  0  0  0  0  0  0  0
   -0.8483   -6.8367   -1.3909 N   0  0  0  0  0  0  0  0  0  0  0  0
    3.6881    1.0866    0.3652 O   0  0  0  0  0  0  0  0  0  0  0  0
    3.3098   -0.7873   -0.8840 O   0  0  0  0  0  0  0  0  0  0  0  0
    2.4727   -7.1251   -0.6101 H   0  0  0  0  0  0  0  0  0  0  0  0
    1.1040   -6.7306    0.4301 H   0  0  0  0  0  0  0  0  0  0  0  0
    1.6827   -5.5566   -0.7717 H   0  0  0  0  0  0  0  0  0  0  0  0
    2.3670   -0.4975   -3.0964 H   0  0  0  0  0  0  0  0  0  0  0  0
    0.7361   -0.4496   -2.4387 H   0  0  0  0  0  0  0  0  0  0  0  0
    1.3231   -1.9212   -3.1863 H   0  0  0  0  0  0  0  0  0  0  0  0
   -1.5675   -8.8228   -1.6422 H   0  0  0  0  0  0  0  0  0  0  0  0
   -1.6203   -7.8681   -3.1253 H   0  0  0  0  0  0  0  0  0  0  0  0
   -2.7960   -7.5867   -1.8329 H   0  0  0  0  0  0  0  0  0  0  0  0
   -3.8623    2.2095    0.0693 H   0  0  0  0  0  0  0  0  0  0  0  0
   -3.1873    1.3980    1.4791 H   0  0  0  0  0  0  0  0  0  0  0  0
   -3.7774    0.1495   -1.2466 H   0  0  0  0  0  0  0  0  0  0  0  0
   -4.6223   -0.1712    0.2661 H   0  0  0  0  0  0  0  0  0  0  0  0
    0.9774   -5.5315   -4.6105 H   0  0  0  0  0  0  0  0  0  0  0  0
    1.4194   -4.8816   -3.0365 H   0  0  0  0  0  0  0  0  0  0  0  0
    0.5685   -7.7282   -3.7259 H   0  0  0  0  0  0  0  0  0  0  0  0
    2.1256   -7.2105   -3.1217 H   0  0  0  0  0  0  0  0  0  0  0  0
   -1.7605    1.8455   -1.1902 H   0  0  0  0  0  0  0  0  0  0  0  0
   -1.4438    2.6946    0.3205 H   0  0  0  0  0  0  0  0  0  0  0  0
   -1.3284   -5.8076   -3.9689 H   0  0  0  0  0  0  0  0  0  0  0  0
   -0.8645   -4.1759   -3.6050 H   0  0  0  0  0  0  0  0  0  0  0  0
   -3.0149   -1.9815   -0.3350 H   0  0  0  0  0  0  0  0  0  0  0  0
   -2.6506   -1.2460    1.2238 H   0  0  0  0  0  0  0  0  0  0  0  0
   -0.9038   -4.6937    0.2425 H   0  0  0  0  0  0  0  0  0  0  0  0
   -0.4442   -2.7702   -2.0807 H   0  0  0  0  0  0  0  0  0  0  0  0
    0.7588    1.1760   -1.0683 H   0  0  0  0  0  0  0  0  0  0  0  0
    0.8787    1.9529    0.4837 H   0  0  0  0  0  0  0  0  0  0  0  0
    0.6279   -8.3281   -1.4211 H   0  0  0  0  0  0  0  0  0  0  0  0
    2.5169   -2.6166   -1.3454 H   0  0  0  0  0  0  0  0  0  0  0  0
   -0.8762    0.5041    1.4184 H   0  0  0  0  0  0  0  0  0  0  0  0
   -2.2632   -5.3774   -1.8548 H   0  0  0  0  0  0  0  0  0  0  0  0
   -1.2593   -0.5746   -1.4152 H   0  0  0  0  0  0  0  0  0  0  0  0
   -0.4742   -2.2904    0.9562 H   0  0  0  0  0  0  0  0  0  0  0  0
    1.5769   -0.0770    1.6208 H   0  0  0  0  0  0  0  0  0  0  0  0
    1.7312   -2.1687    0.7532 H   0  0  0  0  0  0  0  0  0  0  0  0
  1 26  1  0
  1 27  1  0
  1 28  1  0
  2 29  1  0
  2 30  1  0
  2 31  1  0
  3 32  1  0
  3 33  1  0
  3 34  1  0
  4 35  1  0
  4 36  1  0
  5  4  1  0
  5 37  1  0
  5 38  1  0
  6  7  1  0
  6 39  1  0
  6 40  1  0
  7 41  1  0
  7 42  1  0
  8  4  1  0
  8 43  1  0
  8 44  1  0
  9  6  1  0
  9 45  1  0
  9 46  1  0
 10  5  1  0
 10 47  1  0
 10 48  1  0
 11 17  1  0
 11 49  1  0
 12 11  2  0
 12 50  1  0
 13 51  1  0
 13 52  1  0
 14  1  1  0
 14  7  1  0
 14 53  1  0
 15  2  1  0
 15 54  1  0
 16  8  1  0
 16 13  1  0
 16 55  1  0
 17  9  1  0
 17 56  1  0
 18 10  1  0
 18 16  1  0
 18 19  1  0
 18 57  1  0
 19 12  1  0
 19 58  1  0
 20 13  1  0
 20 22  1  0
 20 59  1  0
 21 15  1  0
 21 19  1  0
 21 20  1  0
 21 60  1  0
 23  3  1  0
 23 14  1  0
 23 17  1  0
 24 22  2  0
 25 15  1  0
 25 22  1  0
M  END
