336327
     RDKit          3D

 34 37  0  0  1  0  0  0  0  0999 V2000
   -4.5694   -2.5453   -0.2273 C   0  0  0  0  0  0  0  0  0  0  0  0
    3.4276   -1.5926    0.5751 C   0  0  0  0  0  0  0  0  0  0  0  0
   -3.2750    0.7855   -1.0954 C   0  0  0  0  0  0  0  0  0  0  0  0
    2.3745   -1.0255    1.2937 C   0  0  0  0  0  0  0  0  0  0  0  0
   -2.2175    1.6230   -0.7301 C   0  0  0  0  0  0  0  0  0  0  0  0
    3.0952    0.0226   -1.1865 C   0  0  0  0  0  0  0  0  0  0  0  0
   -2.5220   -0.9202    0.4652 C   0  0  0  0  0  0  0  0  0  0  0  0
    0.8045    2.5569   -0.1044 C   0  0  0  0  0  0  0  0  0  0  0  0
    3.7839   -1.0720   -0.6668 C   0  0  0  0  0  0  0  0  0  0  0  0
   -3.4270   -0.4774   -0.5003 C   0  0  0  0  0  0  0  0  0  0  0  0
   -1.3203    1.1697    0.2209 C   0  0  0  0  0  0  0  0  0  0  0  0
    1.6694    0.0719    0.7784 C   0  0  0  0  0  0  0  0  0  0  0  0
   -0.1518    1.8504    0.8429 C   0  0  0  0  0  0  0  0  0  0  0  0
    2.0543    0.6035   -0.4580 C   0  0  0  0  0  0  0  0  0  0  0  0
   -1.4779   -0.0803    0.8015 C   0  0  0  0  0  0  0  0  0  0  0  0
    0.5016    0.6463    1.5450 C   0  0  0  0  0  0  0  0  0  0  0  0
    4.8047   -1.6318   -1.3718 O   0  0  0  0  0  0  0  0  0  0  0  0
   -4.4689   -1.2746   -0.8672 O   0  0  0  0  0  0  0  0  0  0  0  0
    1.4242    1.6711   -1.0412 O   0  0  0  0  0  0  0  0  0  0  0  0
   -0.5101   -0.3812    1.7266 O   0  0  0  0  0  0  0  0  0  0  0  0
   -3.7064   -3.1803   -0.4551 H   0  0  0  0  0  0  0  0  0  0  0  0
   -4.7349   -2.4413    0.8505 H   0  0  0  0  0  0  0  0  0  0  0  0
   -5.4518   -3.0459   -0.6391 H   0  0  0  0  0  0  0  0  0  0  0  0
    3.9568   -2.4449    0.9927 H   0  0  0  0  0  0  0  0  0  0  0  0
   -3.9894    1.1227   -1.8423 H   0  0  0  0  0  0  0  0  0  0  0  0
    2.0996   -1.4508    2.2558 H   0  0  0  0  0  0  0  0  0  0  0  0
   -2.1159    2.6050   -1.1792 H   0  0  0  0  0  0  0  0  0  0  0  0
    3.3757    0.4287   -2.1554 H   0  0  0  0  0  0  0  0  0  0  0  0
   -2.5775   -1.8788    0.9658 H   0  0  0  0  0  0  0  0  0  0  0  0
    0.2763    3.3209   -0.6853 H   0  0  0  0  0  0  0  0  0  0  0  0
    1.5916    3.0756    0.4586 H   0  0  0  0  0  0  0  0  0  0  0  0
   -0.5385    2.5562    1.5891 H   0  0  0  0  0  0  0  0  0  0  0  0
    0.8603    0.9527    2.5361 H   0  0  0  0  0  0  0  0  0  0  0  0
    5.1674   -2.3773   -0.8632 H   0  0  0  0  0  0  0  0  0  0  0  0
  1 21  1  0
  1 22  1  0
  1 23  1  0
  2  9  2  0
  2 24  1  0
  3 10  1  0
  3 25  1  0
  4  2  1  0
  4 26  1  0
  5  3  2  0
  5 27  1  0
  6  9  1  0
  6 28  1  0
  7 10  2  0
  7 29  1  0
  8 30  1  0
  8 31  1  0
 11  5  1  0
 11 15  2  0
 12  4  2  0
 12 14  1  0
 13  8  1  0
 13 11  1  0
 13 16  1  0
 13 32  1  0
 14  6  2  0
 15  7  1  0
 16 12  1  0
 16 33  1  0
 17  9  1  0
 17 34  1  0
 18  1  1  0
 18 10  1  0
 19  8  1  0
 19 14  1  0
 20 15  1  0
 20 16  1  0
M  END
