72276
     RDKit          3D

 35 37  0  0  1  0  0  0  0  0999 V2000
   -2.1694    0.8683    0.8581 C   0  0  0  0  0  0  0  0  0  0  0  0
   -3.5076    1.1987    1.0713 C   0  0  0  0  0  0  0  0  0  0  0  0
   -2.8188   -0.5931   -0.9529 C   0  0  0  0  0  0  0  0  0  0  0  0
    4.5779    0.2096   -0.1623 C   0  0  0  0  0  0  0  0  0  0  0  0
    2.6318    1.6361   -0.2107 C   0  0  0  0  0  0  0  0  0  0  0  0
    1.4880   -1.9916    0.0735 C   0  0  0  0  0  0  0  0  0  0  0  0
   -1.8267   -0.0272   -0.1539 C   0  0  0  0  0  0  0  0  0  0  0  0
    4.0172    1.4831   -0.2297 C   0  0  0  0  0  0  0  0  0  0  0  0
    2.3596   -0.7696   -0.0367 C   0  0  0  0  0  0  0  0  0  0  0  0
   -4.5014    0.6331    0.2726 C   0  0  0  0  0  0  0  0  0  0  0  0
    3.7534   -0.9121   -0.0674 C   0  0  0  0  0  0  0  0  0  0  0  0
   -4.1571   -0.2628   -0.7396 C   0  0  0  0  0  0  0  0  0  0  0  0
    0.0528   -1.6121    0.4327 C   0  0  0  0  0  0  0  0  0  0  0  0
    1.8044    0.5129   -0.1299 C   0  0  0  0  0  0  0  0  0  0  0  0
   -0.3707   -0.3857   -0.3865 C   0  0  0  0  0  0  0  0  0  0  0  0
    4.8215    2.5776   -0.3171 O   0  0  0  0  0  0  0  0  0  0  0  0
   -5.8048    0.9634    0.4911 O   0  0  0  0  0  0  0  0  0  0  0  0
    4.3334   -2.1453   -0.0043 O   0  0  0  0  0  0  0  0  0  0  0  0
   -5.1189   -0.8225   -1.5254 O   0  0  0  0  0  0  0  0  0  0  0  0
   -0.0198   -1.3181    1.8283 O   0  0  0  0  0  0  0  0  0  0  0  0
    0.4554    0.7571   -0.1114 O   0  0  0  0  0  0  0  0  0  0  0  0
   -1.4138    1.3149    1.4984 H   0  0  0  0  0  0  0  0  0  0  0  0
   -3.7622    1.8965    1.8646 H   0  0  0  0  0  0  0  0  0  0  0  0
   -2.5491   -1.2932   -1.7399 H   0  0  0  0  0  0  0  0  0  0  0  0
    5.6594    0.0989   -0.1825 H   0  0  0  0  0  0  0  0  0  0  0  0
    2.1897    2.6282   -0.2657 H   0  0  0  0  0  0  0  0  0  0  0  0
    1.5007   -2.5079   -0.8940 H   0  0  0  0  0  0  0  0  0  0  0  0
    1.8879   -2.6664    0.8395 H   0  0  0  0  0  0  0  0  0  0  0  0
   -0.6030   -2.4707    0.2456 H   0  0  0  0  0  0  0  0  0  0  0  0
   -0.2554   -0.6034   -1.4586 H   0  0  0  0  0  0  0  0  0  0  0  0
    4.2661    3.3752   -0.3553 H   0  0  0  0  0  0  0  0  0  0  0  0
   -5.8521    1.5945    1.2297 H   0  0  0  0  0  0  0  0  0  0  0  0
    5.3002   -2.0460   -0.0383 H   0  0  0  0  0  0  0  0  0  0  0  0
   -4.6962   -1.4158   -2.1700 H   0  0  0  0  0  0  0  0  0  0  0  0
   -0.9590   -1.2961    2.0778 H   0  0  0  0  0  0  0  0  0  0  0  0
  1  2  2  0
  1 22  1  0
  2 10  1  0
  2 23  1  0
  3 12  1  0
  3 24  1  0
  4  8  2  0
  4 25  1  0
  5  8  1  0
  5 26  1  0
  6  9  1  0
  6 27  1  0
  6 28  1  0
  7  1  1  0
  7  3  2  0
  9 11  2  0
  9 14  1  0
 11  4  1  0
 12 10  2  0
 13  6  1  0
 13 15  1  0
 13 29  1  0
 14  5  2  0
 15  7  1  0
 15 30  1  0
 16  8  1  0
 16 31  1  0
 17 10  1  0
 17 32  1  0
 18 11  1  0
 18 33  1  0
 19 12  1  0
 19 34  1  0
 20 13  1  0
 20 35  1  0
 21 14  1  0
 21 15  1  0
M  END
