5280896
     RDKit          3D

 39 39  0  0  1  0  0  0  0  0999 V2000
    2.1010    2.0927   -1.8761 C   0  0  0  0  0  0  0  0  0  0  0  0
   -1.0978    1.0863    2.5869 C   0  0  0  0  0  0  0  0  0  0  0  0
   -2.6417   -2.2308    0.2522 C   0  0  0  0  0  0  0  0  0  0  0  0
   -0.9825   -1.9828   -1.5708 C   0  0  0  0  0  0  0  0  0  0  0  0
    1.4637    0.2754   -0.2228 C   0  0  0  0  0  0  0  0  0  0  0  0
    0.1399    0.4707   -0.3362 C   0  0  0  0  0  0  0  0  0  0  0  0
    3.8033    0.6619   -0.6636 C   0  0  0  0  0  0  0  0  0  0  0  0
   -2.9255    1.0601    0.9296 C   0  0  0  0  0  0  0  0  0  0  0  0
   -2.7709   -0.2439   -1.2936 C   0  0  0  0  0  0  0  0  0  0  0  0
    2.5259    1.0124   -0.9149 C   0  0  0  0  0  0  0  0  0  0  0  0
   -1.7108    0.6150    1.2928 C   0  0  0  0  0  0  0  0  0  0  0  0
   -3.5388    0.6686   -0.3627 C   0  0  0  0  0  0  0  0  0  0  0  0
    4.2431   -0.4104    0.2567 C   0  0  0  0  0  0  0  0  0  0  0  0
   -1.8087   -1.1821   -0.5359 C   0  0  0  0  0  0  0  0  0  0  0  0
   -0.8886   -0.3343    0.4202 C   0  0  0  0  0  0  0  0  0  0  0  0
   -4.6354    1.1292   -0.6772 O   0  0  0  0  0  0  0  0  0  0  0  0
    4.4588    0.1375    1.4768 O   0  0  0  0  0  0  0  0  0  0  0  0
    4.4111   -1.5866   -0.0114 O   0  0  0  0  0  0  0  0  0  0  0  0
   -0.1461   -1.2388    1.2500 O   0  0  0  0  0  0  0  0  0  0  0  0
    2.9712    2.5660   -2.3444 H   0  0  0  0  0  0  0  0  0  0  0  0
    1.5428    2.8803   -1.3590 H   0  0  0  0  0  0  0  0  0  0  0  0
    1.4831    1.6817   -2.6815 H   0  0  0  0  0  0  0  0  0  0  0  0
   -1.7200    1.8361    3.0877 H   0  0  0  0  0  0  0  0  0  0  0  0
   -0.1195    1.5436    2.4076 H   0  0  0  0  0  0  0  0  0  0  0  0
   -0.9715    0.2506    3.2821 H   0  0  0  0  0  0  0  0  0  0  0  0
   -1.9994   -2.9982    0.6984 H   0  0  0  0  0  0  0  0  0  0  0  0
   -3.3452   -2.7493   -0.4102 H   0  0  0  0  0  0  0  0  0  0  0  0
   -3.2277   -1.7813    1.0595 H   0  0  0  0  0  0  0  0  0  0  0  0
   -0.4417   -1.3263   -2.2605 H   0  0  0  0  0  0  0  0  0  0  0  0
   -0.2514   -2.6343   -1.0798 H   0  0  0  0  0  0  0  0  0  0  0  0
   -1.6327   -2.6186   -2.1834 H   0  0  0  0  0  0  0  0  0  0  0  0
    1.8087   -0.5064    0.4462 H   0  0  0  0  0  0  0  0  0  0  0  0
   -0.2400    1.2451   -0.9977 H   0  0  0  0  0  0  0  0  0  0  0  0
    4.6137    1.1839   -1.1655 H   0  0  0  0  0  0  0  0  0  0  0  0
   -3.4954    1.7406    1.5533 H   0  0  0  0  0  0  0  0  0  0  0  0
   -3.4995   -0.8348   -1.8627 H   0  0  0  0  0  0  0  0  0  0  0  0
   -2.2350    0.3899   -2.0096 H   0  0  0  0  0  0  0  0  0  0  0  0
    4.7609   -0.5291    2.1301 H   0  0  0  0  0  0  0  0  0  0  0  0
   -0.7434   -1.6025    1.9252 H   0  0  0  0  0  0  0  0  0  0  0  0
  1 20  1  0
  1 21  1  0
  1 22  1  0
  2 23  1  0
  2 24  1  0
  2 25  1  0
  3 26  1  0
  3 27  1  0
  3 28  1  0
  4 29  1  0
  4 30  1  0
  4 31  1  0
  5 10  1  0
  5 32  1  0
  6  5  2  0
  6 33  1  0
  7 13  1  0
  7 34  1  0
  8 35  1  0
  9 12  1  0
  9 36  1  0
  9 37  1  0
 10  1  1  0
 10  7  2  0
 11  2  1  0
 11  8  2  0
 12  8  1  0
 14  3  1  0
 14  4  1  0
 14  9  1  0
 14 15  1  0
 15  6  1  0
 15 11  1  0
 16 12  2  0
 17 13  1  0
 17 38  1  0
 18 13  2  0
 19 15  1  0
 19 39  1  0
M  END
