5860420
     RDKit          3D

 44 46  0  0  1  0  0  0  0  0999 V2000
   -3.5174    0.8812   -1.8280 C   0  0  0  0  0  0  0  0  0  0  0  0
    3.2777    1.9496   -0.7232 C   0  0  0  0  0  0  0  0  0  0  0  0
   -0.8861    2.9113    2.6075 C   0  0  0  0  0  0  0  0  0  0  0  0
    0.3849   -3.3781    1.3740 C   0  0  0  0  0  0  0  0  0  0  0  0
   -2.4980   -0.0542    0.3160 C   0  0  0  0  0  0  0  0  0  0  0  0
   -2.8397   -1.5242    0.0199 C   0  0  0  0  0  0  0  0  0  0  0  0
   -1.1507    1.3632   -1.3269 C   0  0  0  0  0  0  0  0  0  0  0  0
    0.2077   -1.9352   -0.7029 C   0  0  0  0  0  0  0  0  0  0  0  0
   -2.2944    0.7574   -0.9475 C   0  0  0  0  0  0  0  0  0  0  0  0
    2.6328    0.7855   -0.6005 C   0  0  0  0  0  0  0  0  0  0  0  0
   -0.7660    2.8297    1.1159 C   0  0  0  0  0  0  0  0  0  0  0  0
    0.1734    1.5391   -0.6239 C   0  0  0  0  0  0  0  0  0  0  0  0
    1.0621   -0.8333   -0.0625 C   0  0  0  0  0  0  0  0  0  0  0  0
   -1.9372   -2.4852    0.7328 C   0  0  0  0  0  0  0  0  0  0  0  0
    1.2112    0.4283   -0.9187 C   0  0  0  0  0  0  0  0  0  0  0  0
    3.3319   -0.4016   -0.0735 C   0  0  0  0  0  0  0  0  0  0  0  0
   -0.4886   -2.7248    0.3649 C   0  0  0  0  0  0  0  0  0  0  0  0
   -1.2703    3.6331    0.3429 O   0  0  0  0  0  0  0  0  0  0  0  0
    4.5252   -0.5204    0.1377 O   0  0  0  0  0  0  0  0  0  0  0  0
   -0.0205    1.7383    0.7729 O   0  0  0  0  0  0  0  0  0  0  0  0
    2.3926   -1.3666    0.1127 O   0  0  0  0  0  0  0  0  0  0  0  0
   -1.5307   -3.5931   -0.0897 O   0  0  0  0  0  0  0  0  0  0  0  0
   -4.3622    1.2646   -1.2460 H   0  0  0  0  0  0  0  0  0  0  0  0
   -3.3614    1.5719   -2.6638 H   0  0  0  0  0  0  0  0  0  0  0  0
   -3.7987   -0.0866   -2.2528 H   0  0  0  0  0  0  0  0  0  0  0  0
    2.7857    2.8316   -1.1165 H   0  0  0  0  0  0  0  0  0  0  0  0
    4.3205    2.0572   -0.4433 H   0  0  0  0  0  0  0  0  0  0  0  0
   -1.4806    3.7892    2.8761 H   0  0  0  0  0  0  0  0  0  0  0  0
    0.1062    3.0127    3.0541 H   0  0  0  0  0  0  0  0  0  0  0  0
   -1.3905    2.0193    2.9874 H   0  0  0  0  0  0  0  0  0  0  0  0
    0.7876   -2.6485    2.0834 H   0  0  0  0  0  0  0  0  0  0  0  0
    1.2238   -3.8925    0.8933 H   0  0  0  0  0  0  0  0  0  0  0  0
   -0.1588   -4.1279    1.9607 H   0  0  0  0  0  0  0  0  0  0  0  0
   -1.6310   -0.0047    0.9770 H   0  0  0  0  0  0  0  0  0  0  0  0
   -3.3218    0.3984    0.8831 H   0  0  0  0  0  0  0  0  0  0  0  0
   -3.8692   -1.7211    0.3445 H   0  0  0  0  0  0  0  0  0  0  0  0
   -2.8211   -1.7374   -1.0554 H   0  0  0  0  0  0  0  0  0  0  0  0
   -1.1655    1.8668   -2.2951 H   0  0  0  0  0  0  0  0  0  0  0  0
   -0.5216   -1.5098   -1.3966 H   0  0  0  0  0  0  0  0  0  0  0  0
    0.8360   -2.6141   -1.2930 H   0  0  0  0  0  0  0  0  0  0  0  0
    0.5807    2.4795   -1.0200 H   0  0  0  0  0  0  0  0  0  0  0  0
    0.6950   -0.5860    0.9405 H   0  0  0  0  0  0  0  0  0  0  0  0
   -2.2547   -2.6871    1.7479 H   0  0  0  0  0  0  0  0  0  0  0  0
    1.1823    0.1676   -1.9859 H   0  0  0  0  0  0  0  0  0  0  0  0
  1 23  1  0
  1 24  1  0
  1 25  1  0
  2 26  1  0
  2 27  1  0
  3 28  1  0
  3 29  1  0
  3 30  1  0
  4 31  1  0
  4 32  1  0
  4 33  1  0
  5  9  1  0
  5 34  1  0
  5 35  1  0
  6  5  1  0
  6 36  1  0
  6 37  1  0
  7 38  1  0
  8 13  1  0
  8 39  1  0
  8 40  1  0
  9  1  1  0
  9  7  2  0
 10  2  2  0
 10 16  1  0
 11  3  1  0
 12  7  1  0
 12 41  1  0
 13 15  1  0
 13 42  1  0
 14  6  1  0
 14 43  1  0
 15 10  1  0
 15 12  1  0
 15 44  1  0
 17  4  1  0
 17  8  1  0
 17 14  1  0
 18 11  2  0
 19 16  2  0
 20 11  1  0
 20 12  1  0
 21 13  1  0
 21 16  1  0
 22 14  1  0
 22 17  1  0
M  END
