87014
     RDKit          3D

 28 30  0  0  0  0  0  0  0  0999 V2000
   -4.3488    0.2518   -0.1508 C   0  0  0  0  0  0  0  0  0  0  0  0
   -4.1519   -1.1265   -0.0932 C   0  0  0  0  0  0  0  0  0  0  0  0
   -3.2543    1.1166   -0.1258 C   0  0  0  0  0  0  0  0  0  0  0  0
   -2.8595   -1.6458   -0.0105 C   0  0  0  0  0  0  0  0  0  0  0  0
    2.9549    1.3091    0.1770 C   0  0  0  0  0  0  0  0  0  0  0  0
    1.6627    1.8285    0.0950 C   0  0  0  0  0  0  0  0  0  0  0  0
    2.0574   -0.9341    0.2089 C   0  0  0  0  0  0  0  0  0  0  0  0
    4.5355   -0.6205    0.3212 C   0  0  0  0  0  0  0  0  0  0  0  0
    3.1520   -0.0692    0.2336 C   0  0  0  0  0  0  0  0  0  0  0  0
   -1.9558    0.5997   -0.0433 C   0  0  0  0  0  0  0  0  0  0  0  0
   -1.7584   -0.7815    0.0144 C   0  0  0  0  0  0  0  0  0  0  0  0
    0.5615    0.9642    0.0698 C   0  0  0  0  0  0  0  0  0  0  0  0
    0.7590   -0.4171    0.1270 C   0  0  0  0  0  0  0  0  0  0  0  0
   -0.8030    1.5230   -0.0179 C   0  0  0  0  0  0  0  0  0  0  0  0
   -0.3939   -1.3404    0.1019 C   0  0  0  0  0  0  0  0  0  0  0  0
    5.0397   -0.8404   -0.9902 O   0  0  0  0  0  0  0  0  0  0  0  0
   -0.9760    2.7344   -0.0705 O   0  0  0  0  0  0  0  0  0  0  0  0
   -0.2212   -2.5519    0.1534 O   0  0  0  0  0  0  0  0  0  0  0  0
   -5.3559    0.6535   -0.2150 H   0  0  0  0  0  0  0  0  0  0  0  0
   -5.0057   -1.7976   -0.1126 H   0  0  0  0  0  0  0  0  0  0  0  0
   -3.4344    2.1873   -0.1718 H   0  0  0  0  0  0  0  0  0  0  0  0
   -2.7327   -2.7241    0.0332 H   0  0  0  0  0  0  0  0  0  0  0  0
    3.8011    1.9911    0.1940 H   0  0  0  0  0  0  0  0  0  0  0  0
    1.5356    2.9068    0.0513 H   0  0  0  0  0  0  0  0  0  0  0  0
    2.2249   -2.0077    0.2520 H   0  0  0  0  0  0  0  0  0  0  0  0
    5.2085    0.0689    0.8421 H   0  0  0  0  0  0  0  0  0  0  0  0
    4.5560   -1.5683    0.8700 H   0  0  0  0  0  0  0  0  0  0  0  0
    4.3736   -1.3391   -1.4935 H   0  0  0  0  0  0  0  0  0  0  0  0
  1 19  1  0
  2  1  2  0
  2 20  1  0
  3  1  1  0
  3 21  1  0
  4  2  1  0
  4 22  1  0
  5 23  1  0
  6  5  1  0
  6 24  1  0
  7  9  1  0
  7 25  1  0
  8 26  1  0
  8 27  1  0
  9  5  2  0
  9  8  1  0
 10  3  2  0
 10 14  1  0
 11  4  2  0
 11 10  1  0
 11 15  1  0
 12  6  2  0
 12 14  1  0
 13  7  2  0
 13 12  1  0
 13 15  1  0
 16  8  1  0
 16 28  1  0
 17 14  2  0
 18 15  2  0
M  END
