15419
     RDKit          3D

 29 30  0  0  0  0  0  0  0  0999 V2000
    3.5037   -0.0276   -1.6045 C   0  0  0  0  0  0  0  0  0  0  0  0
    2.7758    0.3211    0.7889 C   0  0  0  0  0  0  0  0  0  0  0  0
    1.5051    1.0669    0.5215 C   0  0  0  0  0  0  0  0  0  0  0  0
    4.8709   -0.9225    0.3436 C   0  0  0  0  0  0  0  0  0  0  0  0
   -3.2607   -2.1994    0.0011 C   0  0  0  0  0  0  0  0  0  0  0  0
   -2.5700    2.0709   -0.1682 C   0  0  0  0  0  0  0  0  0  0  0  0
    3.6528   -0.1601   -0.1137 C   0  0  0  0  0  0  0  0  0  0  0  0
   -1.9174   -0.4535    0.0947 C   0  0  0  0  0  0  0  0  0  0  0  0
   -0.8994    0.4886    0.1900 C   0  0  0  0  0  0  0  0  0  0  0  0
   -3.2343   -0.0762   -0.1315 C   0  0  0  0  0  0  0  0  0  0  0  0
    0.4195    0.1241    0.4158 N   0  0  0  0  0  0  0  0  0  0  0  0
   -1.9571   -1.8163    0.1763 N   0  0  0  0  0  0  0  0  0  0  0  0
   -4.0593   -1.1706   -0.1876 N   0  0  0  0  0  0  0  0  0  0  0  0
   -1.2625    1.7930    0.0503 N   0  0  0  0  0  0  0  0  0  0  0  0
   -3.6111    1.2173   -0.2729 N   0  0  0  0  0  0  0  0  0  0  0  0
    6.0441   -0.2559   -0.1037 O   0  0  0  0  0  0  0  0  0  0  0  0
    4.2880    0.6192   -2.0103 H   0  0  0  0  0  0  0  0  0  0  0  0
    2.5389    0.3895   -1.9043 H   0  0  0  0  0  0  0  0  0  0  0  0
    3.5860   -1.0109   -2.0799 H   0  0  0  0  0  0  0  0  0  0  0  0
    2.9823    0.1515    1.8451 H   0  0  0  0  0  0  0  0  0  0  0  0
    1.3267    1.7628    1.3501 H   0  0  0  0  0  0  0  0  0  0  0  0
    1.5838    1.6726   -0.3876 H   0  0  0  0  0  0  0  0  0  0  0  0
    4.8598   -1.9343   -0.0755 H   0  0  0  0  0  0  0  0  0  0  0  0
    4.9222   -1.0064    1.4343 H   0  0  0  0  0  0  0  0  0  0  0  0
   -3.5578   -3.2382    0.0223 H   0  0  0  0  0  0  0  0  0  0  0  0
   -2.8127    3.1229   -0.2734 H   0  0  0  0  0  0  0  0  0  0  0  0
    0.6177   -0.8668    0.5064 H   0  0  0  0  0  0  0  0  0  0  0  0
   -1.1713   -2.4326    0.3363 H   0  0  0  0  0  0  0  0  0  0  0  0
    6.8037   -0.7869    0.1903 H   0  0  0  0  0  0  0  0  0  0  0  0
  1 17  1  0
  1 18  1  0
  1 19  1  0
  2  7  2  0
  2 20  1  0
  3  2  1  0
  3 21  1  0
  3 22  1  0
  4 23  1  0
  4 24  1  0
  5 25  1  0
  6 26  1  0
  7  1  1  0
  7  4  1  0
  8  9  2  0
  8 10  1  0
 11  3  1  0
 11  9  1  0
 11 27  1  0
 12  5  1  0
 12  8  1  0
 12 28  1  0
 13  5  2  0
 13 10  1  0
 14  6  2  0
 14  9  1  0
 15  6  1  0
 15 10  2  0
 16  4  1  0
 16 29  1  0
M  END
