5280483
     RDKit          3D

 79 80  0  0  1  0  0  0  0  0999 V2000
    1.8186   -3.0422    2.7743 C   0  0  0  0  0  0  0  0  0  0  0  0
    1.5304   -4.3194    0.6412 C   0  0  0  0  0  0  0  0  0  0  0  0
   -4.3471   -4.3583    0.0836 C   0  0  0  0  0  0  0  0  0  0  0  0
   -6.3266    2.0093   -1.0190 C   0  0  0  0  0  0  0  0  0  0  0  0
   -1.2342    4.3419   -0.6032 C   0  0  0  0  0  0  0  0  0  0  0  0
    3.0445    1.8456    2.7798 C   0  0  0  0  0  0  0  0  0  0  0  0
    4.3832   -1.7391   -2.1794 C   0  0  0  0  0  0  0  0  0  0  0  0
    3.6928   -0.9992   -3.1361 C   0  0  0  0  0  0  0  0  0  0  0  0
   -0.8988   -2.4562    0.0038 C   0  0  0  0  0  0  0  0  0  0  0  0
   -4.4355   -1.3057   -0.3043 C   0  0  0  0  0  0  0  0  0  0  0  0
   -3.2851    2.2312    0.1674 C   0  0  0  0  0  0  0  0  0  0  0  0
    0.1714   -2.2030    1.0745 C   0  0  0  0  0  0  0  0  0  0  0  0
   -2.1199   -3.2155    0.5345 C   0  0  0  0  0  0  0  0  0  0  0  0
   -3.6999   -2.2752   -1.2372 C   0  0  0  0  0  0  0  0  0  0  0  0
   -4.8874   -0.0510   -1.0594 C   0  0  0  0  0  0  0  0  0  0  0  0
   -4.5826    1.7230    0.8064 C   0  0  0  0  0  0  0  0  0  0  0  0
   -2.4202    2.9708    1.1955 C   0  0  0  0  0  0  0  0  0  0  0  0
    4.3794   -1.3309   -0.8454 C   0  0  0  0  0  0  0  0  0  0  0  0
    2.9971    0.1502   -2.7607 C   0  0  0  0  0  0  0  0  0  0  0  0
    0.0603    3.0656    1.1481 C   0  0  0  0  0  0  0  0  0  0  0  0
    1.4461    3.4084    0.6846 C   0  0  0  0  0  0  0  0  0  0  0  0
    0.8229   -3.4573    1.6872 C   0  0  0  0  0  0  0  0  0  0  0  0
   -3.1992   -3.5456   -0.5212 C   0  0  0  0  0  0  0  0  0  0  0  0
   -5.5525    1.0066   -0.1563 C   0  0  0  0  0  0  0  0  0  0  0  0
   -1.1104    3.4574    0.6072 C   0  0  0  0  0  0  0  0  0  0  0  0
    2.9385    1.4840    1.3219 C   0  0  0  0  0  0  0  0  0  0  0  0
    2.2581    2.1905    0.3996 C   0  0  0  0  0  0  0  0  0  0  0  0
    3.6815   -0.1767   -0.4661 C   0  0  0  0  0  0  0  0  0  0  0  0
    2.9915    0.5621   -1.4216 C   0  0  0  0  0  0  0  0  0  0  0  0
    3.6852    0.2446    0.9438 C   0  0  0  0  0  0  0  0  0  0  0  0
    2.2537    1.7757   -1.0372 C   0  0  0  0  0  0  0  0  0  0  0  0
    4.2877   -0.4187    1.7817 O   0  0  0  0  0  0  0  0  0  0  0  0
    1.6566    2.4271   -1.8882 O   0  0  0  0  0  0  0  0  0  0  0  0
    2.6434   -2.4593    2.3544 H   0  0  0  0  0  0  0  0  0  0  0  0
    1.3284   -2.4357    3.5431 H   0  0  0  0  0  0  0  0  0  0  0  0
    2.2451   -3.9229    3.2665 H   0  0  0  0  0  0  0  0  0  0  0  0
    0.8180   -4.7373   -0.0764 H   0  0  0  0  0  0  0  0  0  0  0  0
    2.0447   -5.1621    1.1157 H   0  0  0  0  0  0  0  0  0  0  0  0
    2.2747   -3.7392    0.0859 H   0  0  0  0  0  0  0  0  0  0  0  0
   -3.9807   -5.3298    0.4329 H   0  0  0  0  0  0  0  0  0  0  0  0
   -5.1295   -4.5449   -0.6591 H   0  0  0  0  0  0  0  0  0  0  0  0
   -4.7982   -3.8521    0.9426 H   0  0  0  0  0  0  0  0  0  0  0  0
   -7.0953    1.5011   -1.6111 H   0  0  0  0  0  0  0  0  0  0  0  0
   -6.8303    2.7546   -0.3945 H   0  0  0  0  0  0  0  0  0  0  0  0
   -5.6636    2.5376   -1.7117 H   0  0  0  0  0  0  0  0  0  0  0  0
   -1.4347    3.7438   -1.4975 H   0  0  0  0  0  0  0  0  0  0  0  0
   -2.0567    5.0534   -0.4695 H   0  0  0  0  0  0  0  0  0  0  0  0
   -0.3417    4.9431   -0.7899 H   0  0  0  0  0  0  0  0  0  0  0  0
    4.0867    2.0588    3.0404 H   0  0  0  0  0  0  0  0  0  0  0  0
    2.4520    2.7171    3.0654 H   0  0  0  0  0  0  0  0  0  0  0  0
    2.6964    1.0126    3.4008 H   0  0  0  0  0  0  0  0  0  0  0  0
    4.9240   -2.6346   -2.4713 H   0  0  0  0  0  0  0  0  0  0  0  0
    3.6954   -1.3173   -4.1745 H   0  0  0  0  0  0  0  0  0  0  0  0
   -1.2108   -1.4741   -0.3689 H   0  0  0  0  0  0  0  0  0  0  0  0
   -0.4657   -2.9901   -0.8489 H   0  0  0  0  0  0  0  0  0  0  0  0
   -5.3142   -1.7860    0.1387 H   0  0  0  0  0  0  0  0  0  0  0  0
   -3.7755   -1.0071    0.5153 H   0  0  0  0  0  0  0  0  0  0  0  0
   -2.7046    1.3922   -0.2323 H   0  0  0  0  0  0  0  0  0  0  0  0
   -3.5321    2.8924   -0.6699 H   0  0  0  0  0  0  0  0  0  0  0  0
    0.9534   -1.5754    0.6285 H   0  0  0  0  0  0  0  0  0  0  0  0
   -0.2779   -1.6044    1.8776 H   0  0  0  0  0  0  0  0  0  0  0  0
   -1.7861   -4.1713    0.9559 H   0  0  0  0  0  0  0  0  0  0  0  0
   -2.5604   -2.6602    1.3710 H   0  0  0  0  0  0  0  0  0  0  0  0
   -4.3884   -2.5785   -2.0372 H   0  0  0  0  0  0  0  0  0  0  0  0
   -2.8726   -1.7645   -1.7414 H   0  0  0  0  0  0  0  0  0  0  0  0
   -4.0546    0.3828   -1.6234 H   0  0  0  0  0  0  0  0  0  0  0  0
   -5.6158   -0.3724   -1.8165 H   0  0  0  0  0  0  0  0  0  0  0  0
   -4.3194    1.0265    1.6129 H   0  0  0  0  0  0  0  0  0  0  0  0
   -5.1056    2.5576    1.2907 H   0  0  0  0  0  0  0  0  0  0  0  0
   -2.9702    3.8380    1.5826 H   0  0  0  0  0  0  0  0  0  0  0  0
   -2.2404    2.3114    2.0540 H   0  0  0  0  0  0  0  0  0  0  0  0
    4.9246   -1.9262   -0.1177 H   0  0  0  0  0  0  0  0  0  0  0  0
    2.4656    0.7096   -3.5260 H   0  0  0  0  0  0  0  0  0  0  0  0
    0.0195    2.4284    2.0313 H   0  0  0  0  0  0  0  0  0  0  0  0
    1.4473    4.0814   -0.1771 H   0  0  0  0  0  0  0  0  0  0  0  0
    1.9240    4.0103    1.4671 H   0  0  0  0  0  0  0  0  0  0  0  0
    0.0526   -4.0665    2.1733 H   0  0  0  0  0  0  0  0  0  0  0  0
   -2.7277   -4.1758   -1.2877 H   0  0  0  0  0  0  0  0  0  0  0  0
   -6.3023    0.4983    0.4655 H   0  0  0  0  0  0  0  0  0  0  0  0
  1 34  1  0
  1 35  1  0
  1 36  1  0
  2 37  1  0
  2 38  1  0
  2 39  1  0
  3 40  1  0
  3 41  1  0
  3 42  1  0
  4 43  1  0
  4 44  1  0
  4 45  1  0
  5 46  1  0
  5 47  1  0
  5 48  1  0
  6 49  1  0
  6 50  1  0
  6 51  1  0
  7 52  1  0
  8  7  2  0
  8 53  1  0
  9 12  1  0
  9 54  1  0
  9 55  1  0
 10 15  1  0
 10 56  1  0
 10 57  1  0
 11 17  1  0
 11 58  1  0
 11 59  1  0
 12 22  1  0
 12 60  1  0
 12 61  1  0
 13  9  1  0
 13 62  1  0
 13 63  1  0
 14 10  1  0
 14 64  1  0
 14 65  1  0
 15 66  1  0
 15 67  1  0
 16 11  1  0
 16 68  1  0
 16 69  1  0
 17 25  1  0
 17 70  1  0
 17 71  1  0
 18  7  1  0
 18 72  1  0
 19  8  1  0
 19 73  1  0
 20 21  1  0
 20 74  1  0
 21 27  1  0
 21 75  1  0
 21 76  1  0
 22  1  1  0
 22  2  1  0
 22 77  1  0
 23  3  1  0
 23 13  1  0
 23 14  1  0
 23 78  1  0
 24  4  1  0
 24 15  1  0
 24 16  1  0
 24 79  1  0
 25  5  1  0
 25 20  2  0
 26  6  1  0
 26 30  1  0
 27 26  2  0
 27 31  1  0
 28 18  2  0
 28 30  1  0
 29 19  2  0
 29 28  1  0
 31 29  1  0
 32 30  2  0
 33 31  2  0
M  END
