5144
     RDKit          3D

 22 23  0  0  0  0  0  0  0  0999 V2000
   -4.0968   -1.1110    0.6380 C   0  0  0  0  0  0  0  0  0  0  0  0
   -3.3524   -0.0112    0.4767 C   0  0  0  0  0  0  0  0  0  0  0  0
   -2.5081    0.2687   -0.7391 C   0  0  0  0  0  0  0  0  0  0  0  0
   -0.4963    1.6150   -0.0919 C   0  0  0  0  0  0  0  0  0  0  0  0
    0.8643    1.7311    0.2029 C   0  0  0  0  0  0  0  0  0  0  0  0
   -0.2535   -0.7774   -0.4729 C   0  0  0  0  0  0  0  0  0  0  0  0
    3.2000   -0.9036    0.2019 C   0  0  0  0  0  0  0  0  0  0  0  0
   -1.0519    0.3679   -0.4279 C   0  0  0  0  0  0  0  0  0  0  0  0
    1.6307    0.5849    0.1514 C   0  0  0  0  0  0  0  0  0  0  0  0
    1.0867   -0.6356   -0.1775 C   0  0  0  0  0  0  0  0  0  0  0  0
    2.9648    0.5043    0.4070 O   0  0  0  0  0  0  0  0  0  0  0  0
    2.0124   -1.6332   -0.1686 O   0  0  0  0  0  0  0  0  0  0  0  0
   -4.6888   -1.2469    1.5364 H   0  0  0  0  0  0  0  0  0  0  0  0
   -4.1279   -1.8897   -0.1158 H   0  0  0  0  0  0  0  0  0  0  0  0
   -3.3637    0.7416    1.2613 H   0  0  0  0  0  0  0  0  0  0  0  0
   -2.6675   -0.4985   -1.5084 H   0  0  0  0  0  0  0  0  0  0  0  0
   -2.8557    1.2050   -1.1947 H   0  0  0  0  0  0  0  0  0  0  0  0
   -1.1216    2.5039   -0.0565 H   0  0  0  0  0  0  0  0  0  0  0  0
    1.2965    2.6905    0.4631 H   0  0  0  0  0  0  0  0  0  0  0  0
   -0.6665   -1.7472   -0.7289 H   0  0  0  0  0  0  0  0  0  0  0  0
    3.9469   -1.0227   -0.5915 H   0  0  0  0  0  0  0  0  0  0  0  0
    3.5998   -1.3313    1.1285 H   0  0  0  0  0  0  0  0  0  0  0  0
  1 13  1  0
  1 14  1  0
  2  1  2  0
  2 15  1  0
  3  2  1  0
  3 16  1  0
  3 17  1  0
  4  5  2  0
  4 18  1  0
  5 19  1  0
  6 20  1  0
  7 21  1  0
  7 22  1  0
  8  3  1  0
  8  4  1  0
  8  6  2  0
  9  5  1  0
 10  6  1  0
 10  9  2  0
 11  7  1  0
 11  9  1  0
 12  7  1  0
 12 10  1  0
M  END
