10955174
     RDKit          3D

 42 44  0  0  1  0  0  0  0  0999 V2000
   -3.4709   -0.2202   -1.0241 C   0  0  0  0  0  0  0  0  0  0  0  0
    1.1097   -2.2721   -0.7888 C   0  0  0  0  0  0  0  0  0  0  0  0
    2.9240   -0.7736   -0.1409 C   0  0  0  0  0  0  0  0  0  0  0  0
   -0.7140    1.6889    1.9011 C   0  0  0  0  0  0  0  0  0  0  0  0
   -1.8459   -1.4466    0.4670 C   0  0  0  0  0  0  0  0  0  0  0  0
    1.4930    1.5926   -1.2667 C   0  0  0  0  0  0  0  0  0  0  0  0
    0.9335    2.0461    0.0784 C   0  0  0  0  0  0  0  0  0  0  0  0
   -0.5874   -1.3765    1.3337 C   0  0  0  0  0  0  0  0  0  0  0  0
   -0.5019    0.2395   -1.7498 C   0  0  0  0  0  0  0  0  0  0  0  0
   -2.3526   -0.0748    0.0124 C   0  0  0  0  0  0  0  0  0  0  0  0
    1.0263    0.1604   -1.5558 C   0  0  0  0  0  0  0  0  0  0  0  0
   -1.1942    0.8186   -0.4848 C   0  0  0  0  0  0  0  0  0  0  0  0
    1.3945   -0.7997   -0.3661 C   0  0  0  0  0  0  0  0  0  0  0  0
   -0.1211    1.0413    0.6306 C   0  0  0  0  0  0  0  0  0  0  0  0
    0.5232   -0.3723    0.9047 C   0  0  0  0  0  0  0  0  0  0  0  0
    1.3839   -0.2515    2.0493 O   0  0  0  0  0  0  0  0  0  0  0  0
   -3.8355    0.7630   -1.3397 H   0  0  0  0  0  0  0  0  0  0  0  0
   -3.1448   -0.7635   -1.9159 H   0  0  0  0  0  0  0  0  0  0  0  0
   -4.3179   -0.7677   -0.5965 H   0  0  0  0  0  0  0  0  0  0  0  0
    0.1012   -2.4512   -1.1501 H   0  0  0  0  0  0  0  0  0  0  0  0
    1.3266   -2.9739    0.0236 H   0  0  0  0  0  0  0  0  0  0  0  0
    1.7655   -2.5543   -1.6231 H   0  0  0  0  0  0  0  0  0  0  0  0
    3.2643    0.1778    0.2791 H   0  0  0  0  0  0  0  0  0  0  0  0
    3.2360   -1.5581    0.5585 H   0  0  0  0  0  0  0  0  0  0  0  0
    3.4686   -0.9349   -1.0785 H   0  0  0  0  0  0  0  0  0  0  0  0
   -1.2522    2.6103    1.6502 H   0  0  0  0  0  0  0  0  0  0  0  0
    0.0753    1.9563    2.6128 H   0  0  0  0  0  0  0  0  0  0  0  0
   -1.4138    1.0392    2.4316 H   0  0  0  0  0  0  0  0  0  0  0  0
   -1.6948   -2.0990   -0.3948 H   0  0  0  0  0  0  0  0  0  0  0  0
   -2.6363   -1.9415    1.0471 H   0  0  0  0  0  0  0  0  0  0  0  0
    1.1457    2.2684   -2.0587 H   0  0  0  0  0  0  0  0  0  0  0  0
    2.5853    1.6721   -1.2731 H   0  0  0  0  0  0  0  0  0  0  0  0
    1.7559    2.1573    0.7963 H   0  0  0  0  0  0  0  0  0  0  0  0
    0.4934    3.0450   -0.0372 H   0  0  0  0  0  0  0  0  0  0  0  0
   -0.9099   -1.1090    2.3503 H   0  0  0  0  0  0  0  0  0  0  0  0
   -0.1766   -2.3827    1.4756 H   0  0  0  0  0  0  0  0  0  0  0  0
   -0.7272    0.8972   -2.6002 H   0  0  0  0  0  0  0  0  0  0  0  0
   -0.8949   -0.7376   -2.0401 H   0  0  0  0  0  0  0  0  0  0  0  0
   -2.8159    0.4146    0.8776 H   0  0  0  0  0  0  0  0  0  0  0  0
    1.4904   -0.1892   -2.4863 H   0  0  0  0  0  0  0  0  0  0  0  0
   -1.6216    1.7955   -0.7530 H   0  0  0  0  0  0  0  0  0  0  0  0
    1.7123   -1.1400    2.2690 H   0  0  0  0  0  0  0  0  0  0  0  0
  1 17  1  0
  1 18  1  0
  1 19  1  0
  2 20  1  0
  2 21  1  0
  2 22  1  0
  3 23  1  0
  3 24  1  0
  3 25  1  0
  4 26  1  0
  4 27  1  0
  4 28  1  0
  5 29  1  0
  5 30  1  0
  6 31  1  0
  6 32  1  0
  7  6  1  0
  7 33  1  0
  7 34  1  0
  8  5  1  0
  8 35  1  0
  8 36  1  0
  9 37  1  0
  9 38  1  0
 10  1  1  0
 10  5  1  0
 10 39  1  0
 11  6  1  0
 11  9  1  0
 11 40  1  0
 12  9  1  0
 12 10  1  0
 12 41  1  0
 13  2  1  0
 13  3  1  0
 13 11  1  0
 14  4  1  0
 14  7  1  0
 14 12  1  0
 14 15  1  0
 15  8  1  0
 15 13  1  0
 16 15  1  0
 16 42  1  0
M  END
